<?xml version="1.0" encoding="UTF-8"?>

<!-- generated on 2024-10-21 22:22:55 by Eclipse SUMO netconvert Version 1.19.0
<configuration xmlns:xsi="http://www.w3.org/2001/XMLSchema-instance" xsi:noNamespaceSchemaLocation="http://sumo.dlr.de/xsd/netconvertConfiguration.xsd">

    <input>
        <node-files value="config/workspace/nod.xml"/>
        <edge-files value="config/workspace/edg.xml"/>
    </input>

    <output>
        <output-file value="config/workspace/current_network.net.xml"/>
    </output>

</configuration>
-->

<net version="1.16" junctionCornerDetail="5" limitTurnSpeed="5.50" xmlns:xsi="http://www.w3.org/2001/XMLSchema-instance" xsi:noNamespaceSchemaLocation="http://sumo.dlr.de/xsd/net_file.xsd">

    <location netOffset="-682.00,4368.00" convBoundary="0.00,0.00,2498.00,3881.00" origBoundary="682.00,-4368.00,3180.00,-487.00" projParameter="!"/>

    <edge id=":antrim_0" function="internal">
        <lane id=":antrim_0_0" index="0" speed="10.00" length="28.73" shape="2299.04,3482.94 2274.35,3497.62"/>
    </edge>
    <edge id=":antrim_1" function="internal">
        <lane id=":antrim_1_0" index="0" speed="10.00" length="47.77" shape="2299.04,3482.94 2291.43,3484.98 2281.73,3483.12 2269.96,3477.34 2256.12,3467.64"/>
    </edge>
    <edge id=":antrim_2" function="internal">
        <lane id=":antrim_2_0" index="0" speed="10.00" length="44.37" shape="2299.04,3482.94 2291.68,3484.90 2282.90,3482.72 2272.69,3476.37 2261.05,3465.87"/>
    </edge>
    <edge id=":antrim_3" function="internal">
        <lane id=":antrim_3_0" index="0" speed="10.00" length="54.08" shape="2299.04,3482.94 2291.36,3484.23 2281.74,3479.93 2270.17,3470.06 2256.65,3454.59"/>
    </edge>
    <edge id=":antrim_4" function="internal">
        <lane id=":antrim_4_0" index="0" speed="10.00" length="54.06" shape="2299.04,3482.94 2291.37,3484.22 2281.75,3479.92 2270.20,3470.03 2256.71,3454.55"/>
    </edge>
    <edge id=":antrim_5" function="internal">
        <lane id=":antrim_5_0" index="0" speed="10.00" length="53.32" shape="2299.04,3482.94 2291.50,3484.12 2282.40,3479.45 2271.72,3468.91 2259.48,3452.52"/>
    </edge>
    <edge id=":antrim_6" function="internal">
        <lane id=":antrim_6_0" index="0" speed="10.00" length="52.91" shape="2299.04,3482.94 2291.59,3484.06 2282.80,3479.17 2272.67,3468.27 2261.22,3451.36"/>
    </edge>
    <edge id=":antrim_7" function="internal">
        <lane id=":antrim_7_0" index="0" speed="10.00" length="49.12" shape="2299.04,3482.94 2292.18,3480.00 2281.27,3470.21 2270.58,3458.36 2264.37,3449.23"/>
    </edge>
    <edge id=":antrim_8" function="internal">
        <lane id=":antrim_8_0" index="0" speed="10.00" length="53.01" shape="2299.04,3482.94 2291.10,3483.13 2284.85,3474.56 2279.99,3459.77 2276.21,3441.26"/>
    </edge>
    <edge id=":antrim_9" function="internal">
        <lane id=":antrim_9_0" index="0" speed="10.00" length="48.24" shape="2299.04,3482.94 2294.09,3478.61 2286.98,3466.07 2280.37,3451.43 2276.90,3440.80"/>
    </edge>
    <edge id=":antrim_10" function="internal">
        <lane id=":antrim_10_0" index="0" speed="10.00" length="48.25" shape="2299.04,3482.94 2294.10,3478.61 2287.00,3466.06 2280.41,3451.40 2276.94,3440.77"/>
    </edge>
    <edge id=":antrim_11" function="internal">
        <lane id=":antrim_11_0" index="0" speed="10.00" length="53.64" shape="2299.04,3482.94 2291.27,3482.92 2285.63,3473.80 2281.71,3458.35 2279.08,3439.33"/>
    </edge>
    <edge id=":antrim_12" function="internal">
        <lane id=":antrim_12_0" index="0" speed="10.00" length="55.80" shape="2299.04,3482.94 2291.68,3482.48 2287.48,3472.12 2285.69,3455.18 2285.56,3434.96"/>
    </edge>
    <edge id=":antrim_13" function="internal">
        <lane id=":antrim_13_0" index="0" speed="3.65" length="4.67" shape="2299.04,3482.94 2297.60,3482.88 2296.85,3482.40 2296.77,3481.51 2297.38,3480.20"/>
    </edge>
    <edge id=":antrim_14" function="internal">
        <lane id=":antrim_14_0" index="0" speed="10.00" length="41.33" shape="2295.05,3440.60 2293.78,3459.32 2293.74,3472.16 2294.94,3479.12 2297.38,3480.20"/>
    </edge>
    <edge id=":antrim_15" function="internal">
        <lane id=":antrim_15_0" index="0" speed="10.00" length="62.39" shape="2295.05,3440.60 2292.20,3461.94 2287.80,3478.56 2281.85,3490.45 2274.35,3497.62"/>
    </edge>
    <edge id=":antrim_16" function="internal">
        <lane id=":antrim_16_0" index="0" speed="10.00" length="60.93" shape="2295.05,3440.60 2290.92,3458.18 2282.50,3470.05 2270.63,3473.95 2256.12,3467.64"/>
    </edge>
    <edge id=":antrim_17" function="internal">
        <lane id=":antrim_17_0" index="0" speed="10.00" length="55.29" shape="2295.05,3440.60 2291.19,3456.81 2283.47,3468.33 2273.03,3472.31 2261.05,3465.87"/>
    </edge>
    <edge id=":antrim_18" function="internal">
        <lane id=":antrim_18_0" index="0" speed="10.00" length="43.75" shape="2295.05,3440.60 2289.50,3447.51 2277.63,3453.53 2264.87,3456.59 2256.65,3454.59"/>
    </edge>
    <edge id=":antrim_19" function="internal">
        <lane id=":antrim_19_0" index="0" speed="10.00" length="43.69" shape="2295.05,3440.60 2289.51,3447.50 2277.66,3453.51 2264.92,3456.56 2256.71,3454.55"/>
    </edge>
    <edge id=":antrim_20" function="internal">
        <lane id=":antrim_20_0" index="0" speed="9.96" length="37.92" shape="2291.85,3440.46 2287.17,3447.12 2277.24,3452.58 2266.53,3454.99 2259.48,3452.52"/>
    </edge>
    <edge id=":antrim_21" function="internal">
        <lane id=":antrim_21_0" index="0" speed="10.00" length="43.68" shape="2291.85,3440.46 2287.72,3451.93 2279.47,3458.44 2269.74,3458.70 2261.22,3451.36"/>
    </edge>
    <edge id=":antrim_22" function="internal">
        <lane id=":antrim_22_0" index="0" speed="8.94" length="32.98" shape="2291.85,3440.46 2287.71,3446.72 2279.09,3451.25 2269.99,3452.57 2264.37,3449.23"/>
    </edge>
    <edge id=":antrim_23" function="internal">
        <lane id=":antrim_23_0" index="0" speed="6.56" length="18.43" shape="2291.85,3440.46 2289.34,3443.51 2284.19,3444.74 2278.96,3444.04 2276.21,3441.26"/>
    </edge>
    <edge id=":antrim_24" function="internal">
        <lane id=":antrim_24_0" index="0" speed="6.41" length="17.61" shape="2291.85,3440.46 2289.44,3443.30 2284.50,3444.34 2279.50,3443.52 2276.90,3440.80"/>
    </edge>
    <edge id=":antrim_25" function="internal">
        <lane id=":antrim_25_0" index="0" speed="6.41" length="17.94" shape="2291.85,3440.46 2289.70,3444.28 2285.52,3445.22 2281.30,3443.50 2279.08,3439.33"/>
    </edge>
    <edge id=":antrim_26" function="internal">
        <lane id=":antrim_26_0" index="0" speed="4.55" length="8.36" shape="2291.85,3440.46 2285.56,3434.96"/>
    </edge>
    <edge id=":antrim_27" function="internal">
        <lane id=":antrim_27_0" index="0" speed="7.06" length="21.78" shape="2291.85,3440.46 2288.24,3446.13 2284.55,3448.07 2280.79,3446.28 2276.94,3440.77"/>
    </edge>
    <edge id=":antrim_28" function="internal">
        <lane id=":antrim_28_0" index="0" speed="10.00" length="50.52" shape="2286.55,3434.29 2287.60,3456.62 2289.76,3471.72 2293.02,3479.58 2297.38,3480.20"/>
    </edge>
    <edge id=":antrim_29" function="internal">
        <lane id=":antrim_29_0" index="0" speed="10.00" length="66.13" shape="2286.55,3434.29 2286.19,3459.11 2284.03,3477.93 2280.09,3490.77 2274.35,3497.62"/>
    </edge>
    <edge id=":antrim_30" function="internal">
        <lane id=":antrim_30_0" index="0" speed="10.00" length="47.50" shape="2286.55,3434.29 2282.85,3444.02 2274.03,3456.36 2263.85,3465.99 2256.12,3467.64"/>
    </edge>
    <edge id=":antrim_31" function="internal">
        <lane id=":antrim_31_0" index="0" speed="10.00" length="53.40" shape="2286.55,3434.29 2284.97,3451.00 2279.89,3464.57 2271.76,3470.90 2261.05,3465.87"/>
    </edge>
    <edge id=":antrim_32" function="internal">
        <lane id=":antrim_32_0" index="0" speed="10.00" length="39.38" shape="2286.55,3434.29 2282.73,3442.19 2273.74,3450.39 2263.68,3455.61 2256.65,3454.59"/>
    </edge>
    <edge id=":antrim_33" function="internal">
        <lane id=":antrim_33_0" index="0" speed="10.00" length="39.31" shape="2286.55,3434.29 2282.74,3442.19 2273.76,3450.37 2263.72,3455.58 2256.71,3454.55"/>
    </edge>
    <edge id=":antrim_34" function="internal">
        <lane id=":antrim_34_0" index="0" speed="10.00" length="44.00" shape="2286.55,3434.29 2283.90,3446.91 2276.95,3455.85 2268.04,3458.57 2259.48,3452.52"/>
    </edge>
    <edge id=":antrim_35" function="internal">
        <lane id=":antrim_35_0" index="0" speed="10.00" length="41.35" shape="2286.55,3434.29 2283.97,3446.16 2277.32,3454.62 2268.94,3457.19 2261.22,3451.36"/>
    </edge>
    <edge id=":antrim_36" function="internal">
        <lane id=":antrim_36_0" index="0" speed="8.52" length="31.06" shape="2286.55,3434.29 2283.64,3441.53 2276.80,3448.18 2269.29,3451.62 2264.37,3449.23"/>
    </edge>
    <edge id=":antrim_37" function="internal">
        <lane id=":antrim_37_0" index="0" speed="5.81" length="14.54" shape="2286.55,3434.29 2285.07,3437.71 2281.67,3440.87 2278.13,3442.49 2276.21,3441.26"/>
    </edge>
    <edge id=":antrim_38" function="internal">
        <lane id=":antrim_38_0" index="0" speed="5.62" length="13.57" shape="2286.55,3434.29 2285.16,3437.49 2281.98,3440.44 2278.67,3441.95 2276.90,3440.80"/>
    </edge>
    <edge id=":antrim_39" function="internal">
        <lane id=":antrim_39_0" index="0" speed="5.61" length="13.51" shape="2286.55,3434.29 2285.17,3437.47 2282.00,3440.41 2278.70,3441.91 2276.94,3440.77"/>
    </edge>
    <edge id=":antrim_40" function="internal">
        <lane id=":antrim_40_0" index="0" speed="5.39" length="12.52" shape="2286.55,3434.29 2285.50,3437.89 2283.05,3440.56 2280.48,3441.35 2279.08,3439.33"/>
    </edge>
    <edge id=":antrim_41" function="internal">
        <lane id=":antrim_41_0" index="0" speed="2.79" length="1.74" shape="2286.55,3434.29 2286.56,3434.83 2286.39,3435.12 2286.06,3435.17 2285.56,3434.96"/>
    </edge>
    <edge id=":antrim_42" function="internal">
        <lane id=":antrim_42_0" index="0" speed="7.80" length="28.23" shape="2282.08,3437.31 2283.37,3447.18 2284.38,3450.08 2285.11,3446.01 2285.56,3434.96"/>
    </edge>
    <edge id=":antrim_43" function="internal">
        <lane id=":antrim_43_0" index="0" speed="10.00" length="48.97" shape="2282.08,3437.31 2285.00,3458.37 2288.53,3472.54 2292.65,3479.82 2297.38,3480.20"/>
    </edge>
    <edge id=":antrim_44" function="internal">
        <lane id=":antrim_44_0" index="0" speed="10.00" length="62.74" shape="2282.08,3437.31 2283.70,3460.79 2282.96,3478.66 2279.84,3490.94 2274.35,3497.62"/>
    </edge>
    <edge id=":antrim_45" function="internal">
        <lane id=":antrim_45_0" index="0" speed="10.00" length="42.65" shape="2282.08,3437.31 2279.40,3446.55 2272.08,3457.84 2263.26,3466.46 2256.12,3467.64"/>
    </edge>
    <edge id=":antrim_46" function="internal">
        <lane id=":antrim_46_0" index="0" speed="10.00" length="38.49" shape="2282.08,3437.31 2280.07,3446.39 2274.26,3457.28 2267.10,3465.33 2261.05,3465.87"/>
    </edge>
    <edge id=":antrim_47" function="internal">
        <lane id=":antrim_47_0" index="0" speed="9.30" length="34.55" shape="2282.08,3437.31 2279.28,3444.72 2271.79,3451.88 2263.09,3456.07 2256.65,3454.59"/>
    </edge>
    <edge id=":antrim_48" function="internal">
        <lane id=":antrim_48_0" index="0" speed="9.29" length="34.48" shape="2282.08,3437.31 2279.29,3444.71 2271.82,3451.86 2263.13,3456.04 2256.71,3454.55"/>
    </edge>
    <edge id=":antrim_49" function="internal">
        <lane id=":antrim_49_0" index="0" speed="8.76" length="31.47" shape="2282.08,3437.31 2279.64,3444.45 2273.00,3451.00 2265.24,3454.50 2259.48,3452.52"/>
    </edge>
    <edge id=":antrim_50" function="internal">
        <lane id=":antrim_50_0" index="0" speed="9.05" length="34.37" shape="2282.08,3437.31 2280.47,3447.04 2274.93,3454.02 2267.75,3456.15 2261.22,3451.36"/>
    </edge>
    <edge id=":antrim_51" function="internal">
        <lane id=":antrim_51_0" index="0" speed="7.57" length="24.98" shape="2282.08,3437.31 2280.72,3444.41 2276.42,3449.59 2271.19,3451.15 2267.08,3447.41"/>
    </edge>
    <edge id=":antrim_52" function="internal">
        <lane id=":antrim_52_0" index="0" speed="4.27" length="7.08" shape="2282.08,3437.31 2276.21,3441.26"/>
    </edge>
    <edge id=":antrim_53" function="internal">
        <lane id=":antrim_53_0" index="0" speed="4.07" length="6.25" shape="2282.08,3437.31 2276.90,3440.80"/>
    </edge>
    <edge id=":antrim_54" function="internal">
        <lane id=":antrim_54_0" index="0" speed="4.05" length="6.19" shape="2282.08,3437.31 2276.94,3440.77"/>
    </edge>
    <edge id=":antrim_55" function="internal">
        <lane id=":antrim_55_0" index="0" speed="3.81" length="5.29" shape="2282.08,3437.31 2282.09,3438.94 2281.59,3439.82 2280.58,3439.95 2279.08,3439.33"/>
    </edge>
    <edge id=":antrim_56" function="internal">
        <lane id=":antrim_56_0" index="0" speed="8.65" length="34.67" shape="2279.83,3438.82 2282.05,3450.57 2283.74,3453.84 2284.92,3448.64 2285.56,3434.96"/>
    </edge>
    <edge id=":antrim_57" function="internal">
        <lane id=":antrim_57_0" index="0" speed="10.00" length="48.38" shape="2279.83,3438.82 2283.69,3459.25 2287.91,3472.95 2292.47,3479.94 2297.38,3480.20"/>
    </edge>
    <edge id=":antrim_58" function="internal">
        <lane id=":antrim_58_0" index="0" speed="10.00" length="61.15" shape="2279.83,3438.82 2282.46,3461.63 2282.42,3479.03 2279.72,3491.02 2274.35,3497.62"/>
    </edge>
    <edge id=":antrim_59" function="internal">
        <lane id=":antrim_59_0" index="0" speed="10.00" length="40.26" shape="2279.83,3438.82 2277.68,3447.80 2271.11,3458.58 2262.97,3466.69 2256.12,3467.64"/>
    </edge>
    <edge id=":antrim_60" function="internal">
        <lane id=":antrim_60_0" index="0" speed="9.62" length="36.19" shape="2279.83,3438.82 2278.35,3447.65 2273.29,3458.02 2266.81,3465.56 2261.05,3465.87"/>
    </edge>
    <edge id=":antrim_61" function="internal">
        <lane id=":antrim_61_0" index="0" speed="8.90" length="32.17" shape="2279.83,3438.82 2277.56,3445.97 2270.82,3452.61 2262.79,3456.30 2256.65,3454.59"/>
    </edge>
    <edge id=":antrim_62" function="internal">
        <lane id=":antrim_62_0" index="0" speed="8.89" length="32.11" shape="2279.83,3438.82 2277.57,3445.97 2270.85,3452.59 2262.84,3456.27 2256.71,3454.55"/>
    </edge>
    <edge id=":antrim_63" function="internal">
        <lane id=":antrim_63_0" index="0" speed="8.94" length="33.55" shape="2279.83,3438.82 2278.60,3448.23 2273.30,3454.96 2266.17,3457.04 2259.48,3452.52"/>
    </edge>
    <edge id=":antrim_64" function="internal">
        <lane id=":antrim_64_0" index="0" speed="7.89" length="26.17" shape="2279.83,3438.82 2277.95,3444.80 2272.41,3450.26 2265.93,3453.13 2261.22,3451.36"/>
    </edge>
    <edge id=":antrim_65" function="internal">
        <lane id=":antrim_65_0" index="0" speed="6.99" length="21.33" shape="2279.83,3438.82 2278.85,3444.84 2275.17,3449.24 2270.63,3450.59 2267.08,3447.41"/>
    </edge>
    <edge id=":antrim_66" function="internal">
        <lane id=":antrim_66_0" index="0" speed="3.58" length="4.37" shape="2279.83,3438.82 2276.21,3441.26"/>
    </edge>
    <edge id=":antrim_67" function="internal">
        <lane id=":antrim_67_0" index="0" speed="3.32" length="3.48" shape="2279.83,3438.82 2276.94,3440.77"/>
    </edge>
    <edge id=":antrim_68" function="internal">
        <lane id=":antrim_68_0" index="0" speed="6.14" length="17.13" shape="2279.83,3438.82 2278.81,3432.59 2278.34,3430.60 2278.43,3432.85 2279.08,3439.33"/>
    </edge>
    <edge id=":antrim_69" function="internal">
        <lane id=":antrim_69_0" index="0" speed="3.78" length="5.16" shape="2279.83,3438.82 2279.84,3440.42 2279.35,3441.28 2278.37,3441.40 2276.90,3440.80"/>
    </edge>
    <edge id=":antrim_70" function="internal">
        <lane id=":antrim_70_0" index="0" speed="2.85" length="1.91" shape="2276.31,3441.19 2276.15,3440.51 2276.07,3440.29 2276.09,3440.54 2276.21,3441.26"/>
    </edge>
    <edge id=":antrim_71" function="internal">
        <lane id=":antrim_71_0" index="0" speed="4.54" length="8.24" shape="2276.31,3441.19 2277.05,3444.11 2277.39,3445.02 2277.34,3443.92 2276.90,3440.80"/>
    </edge>
    <edge id=":antrim_72" function="internal">
        <lane id=":antrim_72_0" index="0" speed="4.66" length="8.79" shape="2276.31,3441.19 2277.10,3444.31 2277.47,3445.28 2277.41,3444.10 2276.94,3440.77"/>
    </edge>
    <edge id=":antrim_73" function="internal">
        <lane id=":antrim_73_0" index="0" speed="7.84" length="28.54" shape="2276.31,3441.19 2273.73,3431.29 2272.33,3428.36 2272.11,3432.39 2273.07,3443.37"/>
    </edge>
    <edge id=":antrim_74" function="internal">
        <lane id=":antrim_74_0" index="0" speed="9.41" length="40.22" shape="2276.31,3441.19 2280.03,3454.02 2282.80,3457.26 2284.65,3450.91 2285.56,3434.96"/>
    </edge>
    <edge id=":antrim_75" function="internal">
        <lane id=":antrim_75_0" index="0" speed="10.00" length="47.73" shape="2276.31,3441.19 2281.66,3460.62 2286.95,3473.59 2292.19,3480.12 2297.38,3480.20"/>
    </edge>
    <edge id=":antrim_76" function="internal">
        <lane id=":antrim_76_0" index="0" speed="10.00" length="58.86" shape="2276.31,3441.19 2280.51,3462.94 2281.58,3479.60 2279.53,3491.15 2274.35,3497.62"/>
    </edge>
    <edge id=":antrim_77" function="internal">
        <lane id=":antrim_77_0" index="0" speed="9.78" length="36.61" shape="2276.31,3441.19 2275.01,3449.74 2269.61,3459.71 2262.52,3467.04 2256.12,3467.64"/>
    </edge>
    <edge id=":antrim_78" function="internal">
        <lane id=":antrim_78_0" index="0" speed="9.02" length="32.72" shape="2276.31,3441.19 2275.67,3449.59 2271.79,3459.15 2266.35,3465.91 2261.05,3465.87"/>
    </edge>
    <edge id=":antrim_79" function="internal">
        <lane id=":antrim_79_0" index="0" speed="8.18" length="27.74" shape="2276.31,3441.19 2274.71,3447.41 2269.02,3453.12 2262.06,3456.21 2256.65,3454.59"/>
    </edge>
    <edge id=":antrim_80" function="internal">
        <lane id=":antrim_80_0" index="0" speed="8.16" length="27.66" shape="2276.31,3441.19 2274.71,3447.40 2269.03,3453.08 2262.10,3456.16 2256.71,3454.55"/>
    </edge>
    <edge id=":antrim_81" function="internal">
        <lane id=":antrim_81_0" index="0" speed="8.09" length="27.98" shape="2276.31,3441.19 2275.67,3448.90 2271.24,3454.48 2265.14,3456.24 2259.48,3452.52"/>
    </edge>
    <edge id=":antrim_82" function="internal">
        <lane id=":antrim_82_0" index="0" speed="7.64" length="25.18" shape="2276.31,3441.19 2275.68,3448.14 2271.61,3453.20 2266.12,3454.80 2261.22,3451.36"/>
    </edge>
    <edge id=":antrim_83" function="internal">
        <lane id=":antrim_83_0" index="0" speed="5.99" length="15.56" shape="2276.31,3441.19 2275.81,3445.51 2273.12,3448.70 2269.72,3449.70 2267.08,3447.41"/>
    </edge>
    <edge id=":antrim_84" function="internal">
        <lane id=":antrim_84_0" index="0" speed="8.49" length="32.87" shape="2270.42,3445.16 2275.06,3455.74 2277.56,3458.62 2277.95,3453.80 2276.21,3441.26"/>
    </edge>
    <edge id=":antrim_85" function="internal">
        <lane id=":antrim_85_0" index="0" speed="8.68" length="34.26" shape="2270.42,3445.16 2275.25,3456.09 2277.94,3459.01 2278.49,3453.91 2276.90,3440.80"/>
    </edge>
    <edge id=":antrim_86" function="internal">
        <lane id=":antrim_86_0" index="0" speed="8.69" length="34.35" shape="2270.42,3445.16 2275.26,3456.12 2277.96,3459.04 2278.52,3453.92 2276.94,3440.77"/>
    </edge>
    <edge id=":antrim_87" function="internal">
        <lane id=":antrim_87_0" index="0" speed="5.37" length="11.60" shape="2270.42,3445.16 2272.05,3448.75 2273.03,3449.65 2273.37,3447.86 2273.07,3443.37"/>
    </edge>
    <edge id=":antrim_88" function="internal">
        <lane id=":antrim_88_0" index="0" speed="10.00" length="45.71" shape="2270.42,3445.16 2276.67,3457.97 2281.28,3460.54 2284.24,3452.87 2285.56,3434.96"/>
    </edge>
    <edge id=":antrim_89" function="internal">
        <lane id=":antrim_89_0" index="0" speed="10.00" length="47.39" shape="2270.42,3445.16 2278.25,3462.91 2285.35,3474.66 2291.72,3480.43 2297.38,3480.20"/>
    </edge>
    <edge id=":antrim_90" function="internal">
        <lane id=":antrim_90_0" index="0" speed="10.00" length="55.59" shape="2270.42,3445.16 2277.26,3465.14 2280.19,3480.54 2279.22,3491.37 2274.35,3497.62"/>
    </edge>
    <edge id=":antrim_91" function="internal">
        <lane id=":antrim_91_0" index="0" speed="8.74" length="30.77" shape="2270.42,3445.16 2270.55,3452.93 2267.12,3461.55 2261.76,3467.60 2256.12,3467.64"/>
    </edge>
    <edge id=":antrim_92" function="internal">
        <lane id=":antrim_92_0" index="0" speed="7.90" length="26.18" shape="2270.42,3445.16 2270.88,3452.13 2268.77,3460.19 2265.15,3465.91 2261.05,3465.87"/>
    </edge>
    <edge id=":antrim_93" function="internal">
        <lane id=":antrim_93_0" index="0" speed="6.79" length="19.60" shape="2270.42,3445.16 2269.62,3449.43 2265.60,3453.45 2260.55,3455.69 2256.65,3454.59"/>
    </edge>
    <edge id=":antrim_94" function="internal">
        <lane id=":antrim_94_0" index="0" speed="6.04" length="15.53" shape="2270.42,3445.16 2269.74,3448.55 2266.48,3451.74 2262.46,3453.49 2259.48,3452.52"/>
    </edge>
    <edge id=":antrim_95" function="internal">
        <lane id=":antrim_95_0" index="0" speed="6.00" length="15.54" shape="2270.42,3445.16 2270.39,3449.29 2267.87,3452.38 2264.33,3453.42 2261.22,3451.36"/>
    </edge>
    <edge id=":antrim_96" function="internal">
        <lane id=":antrim_96_0" index="0" speed="3.49" length="4.03" shape="2270.42,3445.16 2267.08,3447.41"/>
    </edge>
    <edge id=":antrim_97" function="internal">
        <lane id=":antrim_97_0" index="0" speed="7.48" length="24.27" shape="2270.42,3445.16 2270.51,3452.65 2268.26,3456.71 2263.66,3457.34 2256.71,3454.55"/>
    </edge>
    <edge id=":antrim_98" function="internal">
        <lane id=":antrim_98_0" index="0" speed="8.72" length="34.52" shape="2269.51,3445.77 2274.64,3456.67 2277.47,3459.55 2277.99,3454.42 2276.21,3441.26"/>
    </edge>
    <edge id=":antrim_99" function="internal">
        <lane id=":antrim_99_0" index="0" speed="8.89" length="35.72" shape="2269.51,3445.77 2274.82,3456.95 2277.81,3459.84 2278.51,3454.46 2276.90,3440.80"/>
    </edge>
    <edge id=":antrim_100" function="internal">
        <lane id=":antrim_100_0" index="0" speed="8.90" length="35.80" shape="2269.51,3445.77 2274.83,3456.96 2277.84,3459.86 2278.54,3454.46 2276.94,3440.77"/>
    </edge>
    <edge id=":antrim_101" function="internal">
        <lane id=":antrim_101_0" index="0" speed="5.94" length="14.51" shape="2269.51,3445.77 2271.65,3450.17 2272.96,3451.24 2273.43,3448.97 2273.07,3443.37"/>
    </edge>
    <edge id=":antrim_102" function="internal">
        <lane id=":antrim_102_0" index="0" speed="10.00" length="46.42" shape="2269.51,3445.77 2276.16,3458.48 2281.05,3460.92 2284.18,3453.08 2285.56,3434.96"/>
    </edge>
    <edge id=":antrim_103" function="internal">
        <lane id=":antrim_103_0" index="0" speed="10.00" length="47.43" shape="2269.51,3445.77 2277.72,3463.26 2285.10,3474.83 2291.65,3480.47 2297.38,3480.20"/>
    </edge>
    <edge id=":antrim_104" function="internal">
        <lane id=":antrim_104_0" index="0" speed="10.00" length="55.15" shape="2269.51,3445.77 2276.75,3465.48 2279.98,3480.69 2279.17,3491.40 2274.35,3497.62"/>
    </edge>
    <edge id=":antrim_105" function="internal">
        <lane id=":antrim_105_0" index="0" speed="8.55" length="29.64" shape="2269.51,3445.77 2269.77,3453.25 2266.58,3461.64 2261.52,3467.56 2256.12,3467.64"/>
    </edge>
    <edge id=":antrim_106" function="internal">
        <lane id=":antrim_106_0" index="0" speed="7.72" length="25.12" shape="2269.51,3445.77 2270.10,3452.47 2268.25,3460.28 2264.92,3465.86 2261.05,3465.87"/>
    </edge>
    <edge id=":antrim_107" function="internal">
        <lane id=":antrim_107_0" index="0" speed="6.56" length="18.33" shape="2269.51,3445.77 2268.81,3449.74 2265.05,3453.51 2260.31,3455.61 2256.65,3454.59"/>
    </edge>
    <edge id=":antrim_108" function="internal">
        <lane id=":antrim_108_0" index="0" speed="6.55" length="18.25" shape="2269.51,3445.77 2268.81,3449.73 2265.07,3453.47 2260.34,3455.56 2256.71,3454.55"/>
    </edge>
    <edge id=":antrim_109" function="internal">
        <lane id=":antrim_109_0" index="0" speed="5.80" length="14.25" shape="2269.51,3445.77 2268.92,3448.86 2265.93,3451.79 2262.22,3453.40 2259.48,3452.52"/>
    </edge>
    <edge id=":antrim_110" function="internal">
        <lane id=":antrim_110_0" index="0" speed="5.31" length="11.80" shape="2269.51,3445.77 2269.00,3448.34 2266.50,3450.78 2263.43,3452.12 2261.22,3451.36"/>
    </edge>
    <edge id=":antrim_111" function="internal">
        <lane id=":antrim_111_0" index="0" speed="3.55" length="4.29" shape="2269.51,3445.77 2269.52,3447.09 2269.11,3447.81 2268.30,3447.91 2267.08,3447.41"/>
    </edge>
    <edge id=":antrim_112" function="internal">
        <lane id=":antrim_112_0" index="0" speed="6.28" length="17.36" shape="2263.87,3449.57 2260.43,3444.22 2258.91,3442.69 2259.32,3444.97 2261.66,3451.06"/>
    </edge>
    <edge id=":antrim_113" function="internal">
        <lane id=":antrim_113_0" index="0" speed="9.75" length="41.27" shape="2263.87,3449.57 2271.82,3460.84 2276.52,3463.21 2277.99,3456.69 2276.21,3441.26"/>
    </edge>
    <edge id=":antrim_114" function="internal">
        <lane id=":antrim_114_0" index="0" speed="9.87" length="42.02" shape="2263.87,3449.57 2271.93,3460.92 2276.78,3463.24 2278.44,3456.53 2276.90,3440.80"/>
    </edge>
    <edge id=":antrim_115" function="internal">
        <lane id=":antrim_115_0" index="0" speed="9.87" length="42.07" shape="2263.87,3449.57 2271.94,3460.92 2276.80,3463.24 2278.47,3456.52 2276.94,3440.77"/>
    </edge>
    <edge id=":antrim_116" function="internal">
        <lane id=":antrim_116_0" index="0" speed="8.05" length="26.79" shape="2263.87,3449.57 2268.94,3456.55 2272.16,3457.85 2273.53,3453.46 2273.07,3443.37"/>
    </edge>
    <edge id=":antrim_117" function="internal">
        <lane id=":antrim_117_0" index="0" speed="10.00" length="50.66" shape="2263.87,3449.57 2272.97,3461.37 2279.62,3462.88 2283.82,3454.07 2285.56,3434.96"/>
    </edge>
    <edge id=":antrim_118" function="internal">
        <lane id=":antrim_118_0" index="0" speed="10.00" length="48.19" shape="2263.87,3449.57 2274.47,3465.44 2283.58,3475.84 2291.22,3480.76 2297.38,3480.20"/>
    </edge>
    <edge id=":antrim_119" function="internal">
        <lane id=":antrim_119_0" index="0" speed="10.00" length="49.67" shape="2263.87,3449.57 2267.99,3459.97 2272.25,3475.62 2274.95,3490.26 2274.35,3497.62"/>
    </edge>
    <edge id=":antrim_120" function="internal">
        <lane id=":antrim_120_0" index="0" speed="7.36" length="22.83" shape="2263.87,3449.57 2264.83,3455.32 2263.21,3462.22 2259.99,3467.31 2256.12,3467.64"/>
    </edge>
    <edge id=":antrim_121" function="internal">
        <lane id=":antrim_121_0" index="0" speed="6.61" length="18.96" shape="2263.87,3449.57 2265.19,3454.66 2264.99,3460.96 2263.53,3465.65 2261.05,3465.87"/>
    </edge>
    <edge id=":antrim_122" function="internal">
        <lane id=":antrim_122_0" index="0" speed="5.02" length="10.41" shape="2263.87,3449.57 2263.65,3451.73 2261.52,3453.88 2258.76,3455.13 2256.65,3454.59"/>
    </edge>
    <edge id=":antrim_123" function="internal">
        <lane id=":antrim_123_0" index="0" speed="5.00" length="10.32" shape="2263.87,3449.57 2263.65,3451.72 2261.53,3453.85 2258.80,3455.08 2256.71,3454.55"/>
    </edge>
    <edge id=":antrim_124" function="internal">
        <lane id=":antrim_124_0" index="0" speed="3.83" length="5.29" shape="2263.87,3449.57 2259.48,3452.52"/>
    </edge>
    <edge id=":antrim_125" function="internal">
        <lane id=":antrim_125_0" index="0" speed="3.65" length="4.68" shape="2263.87,3449.57 2263.88,3451.01 2263.44,3451.79 2262.55,3451.91 2261.22,3451.36"/>
    </edge>
    <edge id=":antrim_126" function="internal">
        <lane id=":antrim_126_0" index="0" speed="10.00" length="55.44" shape="2264.14,3449.39 2252.07,3432.52 2247.56,3427.23 2250.61,3433.50 2261.22,3451.36"/>
    </edge>
    <edge id=":antrim_127" function="internal">
        <lane id=":antrim_127_0" index="0" speed="5.78" length="14.01" shape="2264.14,3449.39 2261.08,3445.33 2259.64,3444.26 2259.84,3446.17 2261.66,3451.06"/>
    </edge>
    <edge id=":antrim_128" function="internal">
        <lane id=":antrim_128_0" index="0" speed="9.20" length="35.59" shape="2264.14,3449.39 2271.58,3458.43 2276.06,3460.08 2277.61,3454.36 2276.21,3441.26"/>
    </edge>
    <edge id=":antrim_129" function="internal">
        <lane id=":antrim_129_0" index="0" speed="9.34" length="36.51" shape="2264.14,3449.39 2271.73,3458.55 2276.38,3460.18 2278.11,3454.26 2276.90,3440.80"/>
    </edge>
    <edge id=":antrim_130" function="internal">
        <lane id=":antrim_130_0" index="0" speed="9.35" length="36.57" shape="2264.14,3449.39 2271.74,3458.56 2276.41,3460.18 2278.14,3454.25 2276.94,3440.77"/>
    </edge>
    <edge id=":antrim_131" function="internal">
        <lane id=":antrim_131_0" index="0" speed="8.78" length="31.37" shape="2264.14,3449.39 2270.55,3456.98 2274.68,3458.17 2276.52,3452.96 2276.07,3441.35"/>
    </edge>
    <edge id=":antrim_132" function="internal">
        <lane id=":antrim_132_0" index="0" speed="10.00" length="46.69" shape="2264.14,3449.39 2273.16,3459.46 2279.74,3460.42 2283.87,3452.25 2285.56,3434.96"/>
    </edge>
    <edge id=":antrim_133" function="internal">
        <lane id=":antrim_133_0" index="0" speed="10.00" length="48.78" shape="2261.49,3451.17 2273.09,3466.37 2282.94,3476.27 2291.04,3480.88 2297.38,3480.20"/>
    </edge>
    <edge id=":antrim_134" function="internal">