<?xml version="1.0" encoding="UTF-8"?>

<!-- generated on 2024-10-30 09:38:14 by Eclipse SUMO netconvert Version 1.18.0
<configuration xmlns:xsi="http://www.w3.org/2001/XMLSchema-instance" xsi:noNamespaceSchemaLocation="http://sumo.dlr.de/xsd/netconvertConfiguration.xsd">

    <input>
        <node-files value="config/workspace/nod.xml"/>
        <edge-files value="config/workspace/edg.xml"/>
    </input>

    <output>
        <output-file value="config/workspace/current_network.net.xml"/>
    </output>

</configuration>
-->

<net version="1.16" junctionCornerDetail="5" limitTurnSpeed="5.50" xmlns:xsi="http://www.w3.org/2001/XMLSchema-instance" xsi:noNamespaceSchemaLocation="http://sumo.dlr.de/xsd/net_file.xsd">

    <location netOffset="-682.00,4368.00" convBoundary="0.00,0.00,2498.00,3881.00" origBoundary="682.00,-4368.00,3180.00,-487.00" projParameter="!"/>

    <edge id=":antrim_0" function="internal">
        <lane id=":antrim_0_0" index="0" speed="10.00" length="26.41" shape="2288.08,3466.61 2287.56,3477.01 2286.49,3484.68 2284.88,3489.61 2282.72,3491.79"/>
    </edge>
    <edge id=":antrim_1" function="internal">
        <lane id=":antrim_1_0" index="0" speed="5.64" length="13.49" shape="2288.08,3466.61 2286.81,3467.53 2284.06,3465.39 2281.20,3461.78 2279.64,3458.27"/>
    </edge>
    <edge id=":antrim_2" function="internal">
        <lane id=":antrim_2_0" index="0" speed="10.00" length="35.05" shape="2282.76,3457.50 2284.64,3471.86 2285.26,3482.37 2284.62,3489.01 2282.72,3491.79"/>
    </edge>
    <edge id=":antrim_3" function="internal">
        <lane id=":antrim_3_0" index="0" speed="3.66" length="4.69" shape="2282.76,3457.50 2282.27,3458.86 2281.59,3459.45 2280.71,3459.25 2279.64,3458.27"/>
    </edge>
    <edge id=":antrim_4" function="internal">
        <lane id=":antrim_4_0" index="0" speed="3.83" length="5.14" shape="2279.04,3458.42 2279.60,3460.25 2279.88,3460.83 2279.90,3460.17 2279.64,3458.27"/>
    </edge>
    <edge id=":antrim_5" function="internal">
        <lane id=":antrim_5_0" index="0" speed="10.00" length="33.78" shape="2279.04,3458.42 2280.92,3467.14 2282.56,3478.05 2283.36,3487.49 2282.72,3491.79"/>
    </edge>
    <edge id=":antrim_6" function="internal">
        <lane id=":antrim_6_0" index="0" speed="6.55" length="18.47" shape="2275.56,3459.57 2278.38,3465.68 2280.00,3467.50 2280.42,3465.03 2279.64,3458.27"/>
    </edge>
    <edge id=":antrim_7" function="internal">
        <lane id=":antrim_7_0" index="0" speed="10.00" length="34.07" shape="2275.56,3459.57 2280.72,3472.98 2283.64,3482.82 2284.30,3489.10 2282.72,3491.79"/>
    </edge>
    <edge id=":antrim_8" function="internal">
        <lane id=":antrim_8_0" index="0" speed="7.25" length="21.76" shape="2274.62,3467.23 2278.15,3471.95 2280.16,3472.03 2280.66,3467.47 2279.64,3458.27"/>
    </edge>
    <edge id=":antrim_9" function="internal">
        <lane id=":antrim_9_0" index="0" speed="10.00" length="27.39" shape="2274.62,3467.23 2279.71,3476.02 2283.25,3483.52 2284.51,3489.01 2282.72,3491.79"/>
    </edge>
    <edge id=":antrim_10" function="internal">
        <lane id=":antrim_10_0" index="0" speed="8.37" length="25.40" shape="2277.14,3480.03 2279.80,3480.63 2281.10,3477.20 2281.05,3469.75 2279.64,3458.27"/>
    </edge>
    <edge id=":antrim_11" function="internal">
        <lane id=":antrim_11_0" index="0" speed="7.12" length="15.93" shape="2277.14,3480.03 2282.06,3484.34 2284.63,3487.74 2284.85,3490.22 2282.72,3491.79"/>
    </edge>
    <edge id=":athlone_0" function="internal">
        <lane id=":athlone_0_0" index="0" speed="2.67" length="1.26" shape="1260.61,1971.15 1260.34,1970.78 1260.20,1970.68 1260.17,1970.86 1260.26,1971.30"/>
    </edge>
    <edge id=":athlone_1" function="internal">
        <lane id=":athlone_1_0" index="0" speed="5.16" length="8.50" shape="1260.61,1971.15 1258.84,1968.93 1257.38,1968.28 1256.24,1969.19 1255.40,1971.66"/>
    </edge>
    <edge id=":athlone_2" function="internal">
        <lane id=":athlone_2_0" index="0" speed="10.00" length="25.54" shape="1260.61,1971.15 1258.17,1966.35 1255.36,1959.53 1252.84,1952.59 1251.30,1947.41"/>
    </edge>
    <edge id=":athlone_3" function="internal">
        <lane id=":athlone_3_0" index="0" speed="10.00" length="24.68" shape="1260.61,1971.15 1258.64,1966.32 1256.97,1959.43 1255.90,1952.40 1255.72,1947.14"/>
    </edge>
    <edge id=":athlone_4" function="internal">
        <lane id=":athlone_4_0" index="0" speed="6.55" length="15.13" shape="1260.61,1971.15 1260.73,1968.27 1263.65,1965.65 1267.80,1963.96 1271.65,1963.86"/>
    </edge>
    <edge id=":athlone_5" function="internal">
        <lane id=":athlone_5_0" index="0" speed="4.42" length="7.51" shape="1260.61,1971.15 1259.60,1969.06 1259.70,1967.63 1260.90,1966.85 1263.22,1966.72"/>
    </edge>
    <edge id=":athlone_6" function="internal">
        <lane id=":athlone_6_0" index="0" speed="5.52" length="11.16" shape="1271.74,1958.68 1268.13,1959.91 1266.91,1961.19 1268.08,1962.50 1271.65,1963.86"/>
    </edge>
    <edge id=":athlone_7" function="internal">
        <lane id=":athlone_7_0" index="0" speed="6.94" length="14.23" shape="1271.74,1958.68 1266.41,1960.39 1263.21,1962.30 1262.15,1964.41 1263.22,1966.72"/>
    </edge>
    <edge id=":athlone_8" function="internal">
        <lane id=":athlone_8_0" index="0" speed="9.23" length="19.23" shape="1271.74,1958.68 1265.85,1960.78 1261.97,1963.58 1260.11,1967.09 1260.26,1971.30"/>
    </edge>
    <edge id=":athlone_9" function="internal">
        <lane id=":athlone_9_0" index="0" speed="10.00" length="21.97" shape="1271.74,1958.68 1265.33,1960.85 1260.47,1963.74 1257.16,1967.34 1255.40,1971.66"/>
    </edge>
    <edge id=":athlone_10" function="internal">
        <lane id=":athlone_10_0" index="0" speed="10.00" length="25.25" shape="1271.74,1958.68 1265.60,1958.79 1259.33,1956.61 1254.16,1952.64 1251.30,1947.41"/>
    </edge>
    <edge id=":athlone_11" function="internal">
        <lane id=":athlone_11_0" index="0" speed="9.33" length="24.83" shape="1271.74,1958.68 1264.16,1959.62 1258.96,1958.01 1256.15,1953.85 1255.72,1947.14"/>
    </edge>
    <edge id=":athlone_12" function="internal">
        <lane id=":athlone_12_0" index="0" speed="6.58" length="14.04" shape="1266.96,1955.21 1264.51,1957.69 1264.47,1959.96 1266.85,1962.02 1271.65,1963.86"/>
    </edge>
    <edge id=":athlone_13" function="internal">
        <lane id=":athlone_13_0" index="0" speed="7.66" length="14.00" shape="1266.96,1955.21 1263.51,1958.20 1261.74,1961.12 1261.64,1963.96 1263.22,1966.72"/>
    </edge>
    <edge id=":athlone_14" function="internal">
        <lane id=":athlone_14_0" index="0" speed="10.00" length="18.64" shape="1266.96,1955.21 1263.12,1958.64 1260.72,1962.46 1259.76,1966.69 1260.26,1971.30"/>
    </edge>
    <edge id=":athlone_15" function="internal">
        <lane id=":athlone_15_0" index="0" speed="10.00" length="20.36" shape="1266.96,1955.21 1263.58,1958.31 1260.04,1962.68 1257.07,1967.43 1255.40,1971.66"/>
    </edge>
    <edge id=":athlone_16" function="internal">
        <lane id=":athlone_16_0" index="0" speed="8.77" length="22.43" shape="1266.96,1955.21 1261.49,1957.90 1257.05,1957.50 1253.66,1954.01 1251.30,1947.41"/>
    </edge>
    <edge id=":athlone_17" function="internal">
        <lane id=":athlone_17_0" index="0" speed="6.88" length="15.76" shape="1266.96,1955.21 1263.56,1955.72 1259.76,1953.90 1256.76,1950.71 1255.72,1947.14"/>
    </edge>
    <edge id=":athlone_18" function="internal">
        <lane id=":athlone_18_0" index="0" speed="10.00" length="17.30" shape="1251.31,1964.34 1252.42,1961.88 1252.79,1958.24 1252.42,1953.42 1251.30,1947.41"/>
    </edge>
    <edge id=":athlone_19" function="internal">
        <lane id=":athlone_19_0" index="0" speed="10.00" length="17.94" shape="1251.31,1964.34 1253.24,1960.70 1254.50,1956.13 1255.26,1951.37 1255.72,1947.14"/>
    </edge>
    <edge id=":athlone_20" function="internal">
        <lane id=":athlone_20_0" index="0" speed="10.00" length="21.24" shape="1251.31,1964.34 1254.12,1962.37 1258.45,1961.63 1264.29,1962.13 1271.65,1963.86"/>
    </edge>
    <edge id=":athlone_21" function="internal">
        <lane id=":athlone_21_0" index="0" speed="7.56" length="14.24" shape="1251.31,1964.34 1253.79,1962.30 1256.60,1962.02 1259.74,1963.49 1263.22,1966.72"/>
    </edge>
    <edge id=":athlone_22" function="internal">
        <lane id=":athlone_22_0" index="0" speed="6.34" length="12.78" shape="1251.31,1964.34 1253.57,1963.66 1256.32,1965.34 1258.80,1968.25 1260.26,1971.30"/>
    </edge>
    <edge id=":athlone_23" function="internal">
        <lane id=":athlone_23_0" index="0" speed="5.12" length="9.60" shape="1251.31,1964.34 1252.76,1964.17 1254.22,1966.15 1255.25,1969.05 1255.40,1971.66"/>
    </edge>
    <edge id=":belfast_0" function="internal">
        <lane id=":belfast_0_0" index="0" speed="10.00" length="39.63" shape="2491.05,3328.89 2494.28,3343.20 2495.17,3354.26 2493.71,3362.06 2489.90,3366.61"/>
    </edge>
    <edge id=":belfast_1" function="internal">
        <lane id=":belfast_1_0" index="0" speed="10.00" length="36.93" shape="2491.05,3328.89 2494.03,3341.44 2495.06,3351.85 2493.22,3358.97 2487.59,3361.61"/>
    </edge>
    <edge id=":belfast_2" function="internal">
        <lane id=":belfast_2_0" index="0" speed="9.58" length="33.30" shape="2491.05,3328.89 2492.82,3339.26 2492.13,3348.30 2488.43,3353.49 2481.18,3352.29"/>
    </edge>
    <edge id=":belfast_3" function="internal">
        <lane id=":belfast_3_0" index="0" speed="8.92" length="28.70" shape="2491.05,3328.89 2491.49,3336.56 2489.73,3345.17 2486.17,3351.48 2481.23,3352.21"/>
    </edge>
    <edge id=":belfast_4" function="internal">
        <lane id=":belfast_4_0" index="0" speed="8.42" length="28.03" shape="2491.05,3328.89 2490.78,3336.35 2486.56,3341.36 2480.17,3342.84 2473.40,3339.69"/>
    </edge>
    <edge id=":belfast_5" function="internal">
        <lane id=":belfast_5_0" index="0" speed="8.40" length="29.25" shape="2491.05,3328.89 2490.14,3335.15 2484.42,3336.99 2476.64,3334.98 2469.52,3329.67"/>
    </edge>
    <edge id=":belfast_6" function="internal">
        <lane id=":belfast_6_0" index="0" speed="7.77" length="25.63" shape="2491.05,3328.89 2490.16,3334.11 2485.03,3335.13 2478.22,3332.68 2472.30,3327.49"/>
    </edge>
    <edge id=":belfast_7" function="internal">
        <lane id=":belfast_7_0" index="0" speed="5.52" length="13.08" shape="2491.05,3328.89 2490.54,3331.18 2487.90,3330.87 2484.62,3328.69 2482.19,3325.34"/>
    </edge>
    <edge id=":belfast_8" function="internal">
        <lane id=":belfast_8_0" index="0" speed="5.51" length="13.04" shape="2491.05,3328.89 2490.54,3331.17 2487.91,3330.85 2484.65,3328.66 2482.24,3325.31"/>
    </edge>
    <edge id=":belfast_9" function="internal">
        <lane id=":belfast_9_0" index="0" speed="3.65" length="4.67" shape="2491.05,3328.89 2490.60,3330.26 2489.93,3330.86 2489.05,3330.69 2487.96,3329.75"/>
    </edge>
    <edge id=":belfast_10" function="internal">
        <lane id=":belfast_10_0" index="0" speed="7.59" length="25.48" shape="2477.23,3328.81 2482.94,3335.99 2485.66,3337.81 2485.42,3334.26 2482.19,3325.34"/>
    </edge>
    <edge id=":belfast_11" function="internal">
        <lane id=":belfast_11_0" index="0" speed="7.60" length="25.56" shape="2477.23,3328.81 2482.95,3336.01 2485.69,3337.83 2485.45,3334.26 2482.24,3325.31"/>
    </edge>
    <edge id=":belfast_12" function="internal">
        <lane id=":belfast_12_0" index="0" speed="8.05" length="27.65" shape="2477.23,3328.81 2484.23,3337.55 2488.36,3340.62 2489.60,3338.02 2487.96,3329.75"/>
    </edge>
    <edge id=":belfast_13" function="internal">
        <lane id=":belfast_13_0" index="0" speed="10.00" length="40.42" shape="2477.23,3328.81 2481.91,3337.46 2486.84,3349.64 2490.13,3360.85 2489.90,3366.61"/>
    </edge>
    <edge id=":belfast_14" function="internal">
        <lane id=":belfast_14_0" index="0" speed="10.00" length="39.45" shape="2477.23,3328.81 2485.19,3340.45 2490.87,3351.00 2492.32,3358.65 2487.59,3361.61"/>
    </edge>
    <edge id=":belfast_15" function="internal">
        <lane id=":belfast_15_0" index="0" speed="8.03" length="26.83" shape="2477.23,3328.81 2480.79,3335.74 2483.55,3344.43 2484.14,3351.18 2481.18,3352.29"/>
    </edge>
    <edge id=":belfast_16" function="internal">
        <lane id=":belfast_16_0" index="0" speed="8.01" length="26.74" shape="2477.23,3328.81 2480.79,3335.72 2483.55,3344.39 2484.16,3351.12 2481.23,3352.21"/>
    </edge>
    <edge id=":belfast_17" function="internal">
        <lane id=":belfast_17_0" index="0" speed="6.09" length="15.93" shape="2477.23,3328.81 2478.89,3333.31 2478.50,3337.82 2476.52,3340.55 2473.40,3339.69"/>
    </edge>
    <edge id=":belfast_18" function="internal">
        <lane id=":belfast_18_0" index="0" speed="5.06" length="10.76" shape="2477.23,3328.81 2477.50,3330.88 2475.39,3331.77 2472.27,3331.40 2469.52,3329.67"/>
    </edge>
    <edge id=":belfast_19" function="internal">
        <lane id=":belfast_19_0" index="0" speed="4.32" length="7.45" shape="2477.23,3328.81 2475.50,3330.33 2474.10,3330.62 2473.04,3329.67 2472.30,3327.49"/>
    </edge>
    <edge id=":belfast_20" function="internal">
        <lane id=":belfast_20_0" index="0" speed="4.51" length="8.09" shape="2471.67,3327.93 2473.72,3330.17 2474.51,3330.84 2474.04,3329.95 2472.30,3327.49"/>
    </edge>
    <edge id=":belfast_21" function="internal">
        <lane id=":belfast_21_0" index="0" speed="8.61" length="32.23" shape="2471.67,3327.93 2480.33,3336.79 2484.97,3339.30 2485.59,3335.49 2482.19,3325.34"/>
    </edge>
    <edge id=":belfast_22" function="internal">
        <lane id=":belfast_22_0" index="0" speed="8.62" length="32.29" shape="2471.67,3327.93 2480.34,3336.79 2484.99,3339.31 2485.62,3335.48 2482.24,3325.31"/>
    </edge>
    <edge id=":belfast_23" function="internal">
        <lane id=":belfast_23_0" index="0" speed="8.92" length="33.15" shape="2471.67,3327.93 2481.29,3337.74 2487.22,3341.31 2489.44,3338.65 2487.96,3329.75"/>
    </edge>
    <edge id=":belfast_24" function="internal">
        <lane id=":belfast_24_0" index="0" speed="10.00" length="46.18" shape="2471.67,3327.93 2482.41,3340.74 2490.01,3351.99 2492.99,3360.88 2489.90,3366.61"/>
    </edge>
    <edge id=":belfast_25" function="internal">
        <lane id=":belfast_25_0" index="0" speed="10.00" length="38.07" shape="2471.67,3327.93 2477.35,3336.00 2483.72,3347.26 2488.04,3357.28 2487.59,3361.61"/>
    </edge>
    <edge id=":belfast_26" function="internal">
        <lane id=":belfast_26_0" index="0" speed="8.20" length="29.14" shape="2471.67,3327.93 2476.66,3335.09 2481.44,3344.17 2483.71,3351.22 2481.18,3352.29"/>
    </edge>
    <edge id=":belfast_27" function="internal">
        <lane id=":belfast_27_0" index="0" speed="8.88" length="34.62" shape="2471.67,3327.93 2478.99,3337.31 2484.77,3346.84 2486.39,3352.99 2481.23,3352.21"/>
    </edge>
    <edge id=":belfast_28" function="internal">
        <lane id=":belfast_28_0" index="0" speed="6.02" length="16.05" shape="2471.67,3327.93 2474.48,3332.48 2476.01,3337.34 2475.80,3340.43 2473.40,3339.69"/>
    </edge>
    <edge id=":belfast_29" function="internal">
        <lane id=":belfast_29_0" index="0" speed="3.48" length="4.04" shape="2471.67,3327.93 2471.78,3329.17 2471.46,3329.88 2470.71,3330.04 2469.52,3329.67"/>
    </edge>
    <edge id=":bray_0" function="internal">
        <lane id=":bray_0_0" index="0" speed="10.00" length="51.27" shape="2410.11,1658.87 2425.61,1658.94 2436.89,1662.46 2443.01,1670.57 2443.02,1684.37"/>
    </edge>
    <edge id=":bray_1" function="internal">
        <lane id=":bray_1_0" index="0" speed="10.00" length="44.85" shape="2410.80,1662.03 2424.55,1662.13 2435.06,1665.18 2440.57,1671.98 2439.32,1683.32"/>
    </edge>
    <edge id=":bray_2" function="internal">
        <lane id=":bray_2_0" index="0" speed="9.94" length="40.28" shape="2410.80,1662.03 2418.84,1664.76 2419.30,1672.71 2414.08,1682.67 2405.09,1691.47"/>
    </edge>
    <edge id=":bray_3" function="internal">
        <lane id=":bray_3_0" index="0" speed="8.14" length="29.26" shape="2410.80,1662.03 2415.56,1663.88 2413.49,1669.13 2407.05,1675.32 2398.71,1680.00"/>
    </edge>
    <edge id=":bray_4" function="internal">
        <lane id=":bray_4_0" index="0" speed="5.63" length="13.46" shape="2410.80,1662.03 2414.66,1663.54 2416.28,1665.55 2415.64,1668.05 2412.76,1671.03"/>
    </edge>
    <edge id=":bray_5" function="internal">
        <lane id=":bray_5_0" index="0" speed="8.69" length="34.80" shape="2401.50,1685.85 2412.31,1678.89 2415.44,1675.60 2410.91,1675.97 2398.71,1680.00"/>
    </edge>
    <edge id=":bray_6" function="internal">
        <lane id=":bray_6_0" index="0" speed="8.85" length="34.76" shape="2401.50,1685.85 2415.11,1677.18 2421.52,1671.82 2420.73,1669.77 2412.76,1671.03"/>
    </edge>
    <edge id=":bray_7" function="internal">
        <lane id=":bray_7_0" index="0" speed="10.00" length="43.73" shape="2401.50,1685.85 2411.44,1682.49 2425.75,1680.19 2438.31,1680.36 2443.02,1684.37"/>
    </edge>
    <edge id=":bray_8" function="internal">
        <lane id=":bray_8_0" index="0" speed="10.00" length="49.84" shape="2401.50,1685.85 2416.07,1678.11 2429.96,1673.13 2439.07,1673.87 2439.32,1683.32"/>
    </edge>
    <edge id=":bray_9" function="internal">
        <lane id=":bray_9_0" index="0" speed="4.77" length="9.40" shape="2401.50,1685.85 2403.83,1685.63 2405.62,1687.15 2406.25,1689.43 2405.09,1691.47"/>
    </edge>
    <edge id=":bray_10" function="internal">
        <lane id=":bray_10_0" index="0" speed="9.39" length="39.95" shape="2403.26,1688.84 2414.86,1680.00 2417.97,1675.58 2412.59,1675.58 2398.71,1680.00"/>
    </edge>
    <edge id=":bray_11" function="internal">
        <lane id=":bray_11_0" index="0" speed="9.30" length="37.61" shape="2403.26,1688.84 2416.84,1678.67 2422.96,1672.31 2421.59,1669.77 2412.76,1671.03"/>
    </edge>
    <edge id=":bray_12" function="internal">
        <lane id=":bray_12_0" index="0" speed="10.00" length="52.29" shape="2403.26,1688.84 2417.77,1679.71 2431.59,1673.66 2441.18,1674.08 2443.02,1684.37"/>
    </edge>
    <edge id=":bray_13" function="internal">
        <lane id=":bray_13_0" index="0" speed="9.92" length="38.94" shape="2403.26,1688.84 2412.41,1684.66 2425.19,1681.05 2436.03,1679.96 2439.32,1683.32"/>
    </edge>
    <edge id=":bray_14" function="internal">
        <lane id=":bray_14_0" index="0" speed="3.65" length="4.67" shape="2403.26,1688.84 2404.70,1688.81 2405.48,1689.24 2405.61,1690.12 2405.09,1691.47"/>
    </edge>
    <edge id=":bray_15" function="internal">
        <lane id=":bray_15_0" index="0" speed="8.75" length="34.01" shape="2428.65,1680.26 2430.66,1676.58 2427.40,1677.22 2418.88,1682.18 2405.09,1691.47"/>
    </edge>
    <edge id=":bray_16" function="internal">
        <lane id=":bray_16_0" index="0" speed="10.00" length="40.93" shape="2428.65,1680.26 2431.49,1674.32 2427.44,1672.29 2416.52,1674.19 2398.71,1680.00"/>
    </edge>
    <edge id=":bray_17" function="internal">
        <lane id=":bray_17_0" index="0" speed="8.94" length="30.62" shape="2428.65,1680.26 2432.59,1673.48 2431.25,1669.68 2424.64,1668.86 2412.76,1671.03"/>
    </edge>
    <edge id=":bray_18" function="internal">
        <lane id=":bray_18_0" index="0" speed="7.15" length="20.39" shape="2428.65,1680.26 2433.30,1677.02 2438.37,1676.82 2442.18,1679.38 2443.02,1684.37"/>
    </edge>
    <edge id=":bray_19" function="internal">
        <lane id=":bray_19_0" index="0" speed="6.10" length="15.35" shape="2428.65,1680.26 2432.24,1677.89 2436.23,1677.81 2439.10,1679.73 2439.32,1683.32"/>
    </edge>
    <edge id=":bray_20" function="internal">
        <lane id=":bray_20_0" index="0" speed="10.00" length="41.68" shape="2436.32,1682.19 2436.76,1676.42 2431.70,1676.04 2421.14,1681.06 2405.09,1691.47"/>
    </edge>
    <edge id=":bray_21" function="internal">
        <lane id=":bray_21_0" index="0" speed="10.00" length="46.54" shape="2436.32,1682.19 2436.58,1675.12 2430.39,1672.40 2417.77,1674.03 2398.71,1680.00"/>
    </edge>
    <edge id=":bray_22" function="internal">
        <lane id=":bray_22_0" index="0" speed="10.00" length="35.04" shape="2436.32,1682.19 2437.51,1674.41 2433.98,1669.95 2425.73,1668.83 2412.76,1671.03"/>
    </edge>
    <edge id=":bray_23" function="internal">
        <lane id=":bray_23_0" index="0" speed="4.94" length="9.87" shape="2436.32,1682.19 2438.05,1680.45 2440.47,1680.47 2442.48,1681.90 2443.02,1684.37"/>
    </edge>
    <edge id=":bray_24" function="internal">
        <lane id=":bray_24_0" index="0" speed="3.65" length="4.67" shape="2436.32,1682.19 2437.49,1681.35 2438.38,1681.26 2438.99,1681.91 2439.32,1683.32"/>
    </edge>
    <edge id=":carlow_0" function="internal">
        <lane id=":carlow_0_0" index="0" speed="5.70" length="12.31" shape="1888.09,1163.16 1886.70,1159.37 1885.38,1158.29 1884.12,1159.92 1882.93,1164.27"/>
    </edge>
    <edge id=":carlow_1" function="internal">
        <lane id=":carlow_1_0" index="0" speed="6.97" length="17.53" shape="1888.09,1163.16 1886.16,1158.62 1883.83,1157.48 1881.11,1159.73 1877.98,1165.38"/>
    </edge>
    <edge id=":carlow_2" function="internal">
        <lane id=":carlow_2_0" index="0" speed="3.65" length="4.67" shape="1888.09,1163.16 1888.54,1161.79 1889.21,1161.19 1890.08,1161.36 1891.18,1162.31"/>
    </edge>
    <edge id=":carlow_3" function="internal">
        <lane id=":carlow_3_0" index="0" speed="8.88" length="26.37" shape="1870.85,1161.61 1876.52,1156.42 1882.48,1154.53 1887.70,1156.35 1891.18,1162.31"/>
    </edge>
    <edge id=":carlow_4" function="internal">
        <lane id=":carlow_4_0" index="0" speed="6.54" length="16.89" shape="1870.85,1161.61 1874.71,1158.79 1878.98,1158.38 1882.21,1160.25 1882.93,1164.27"/>
    </edge>
    <edge id=":carlow_5" function="internal">
        <lane id=":carlow_5_0" index="0" speed="5.27" length="11.25" shape="1870.85,1161.61 1873.38,1160.13 1876.14,1160.64 1878.03,1162.57 1877.98,1165.38"/>
    </edge>
    <edge id=":carlow_6" function="internal">
        <lane id=":carlow_6_0" index="0" speed="7.90" length="22.58" shape="1874.21,1163.66 1878.31,1158.61 1883.35,1156.41 1888.06,1157.49 1891.18,1162.31"/>
    </edge>
    <edge id=":carlow_7" function="internal">
        <lane id=":carlow_7_0" index="0" speed="5.47" length="12.12" shape="1874.21,1163.66 1876.63,1161.26 1879.76,1160.56 1882.28,1161.56 1882.93,1164.27"/>
    </edge>
    <edge id=":carlow_8" function="internal">
        <lane id=":carlow_8_0" index="0" speed="4.02" length="6.05" shape="1874.21,1163.66 1875.79,1162.68 1876.95,1162.64 1877.68,1163.54 1877.98,1165.38"/>
    </edge>
    <edge id=":carrick_0" function="internal">
        <lane id=":carrick_0_0" index="0" speed="3.59" length="4.06" shape="1134.28,2595.94 1133.40,2594.77 1132.98,2594.47 1133.01,2595.03 1133.48,2596.47"/>
    </edge>
    <edge id=":carrick_1" function="internal">
        <lane id=":carrick_1_0" index="0" speed="7.34" length="15.24" shape="1134.28,2595.94 1130.49,2590.91 1127.39,2587.92 1124.97,2586.96 1123.24,2588.02"/>
    </edge>
    <edge id=":carrick_2" function="internal">
        <lane id=":carrick_2_0" index="0" speed="10.00" length="39.90" shape="1134.28,2595.94 1110.59,2563.84"/>
    </edge>
    <edge id=":carrick_3" function="internal">
        <lane id=":carrick_3_0" index="0" speed="10.00" length="39.86" shape="1134.28,2595.94 1130.22,2589.47 1123.88,2578.94 1117.62,2568.35 1113.83,2561.73"/>
    </edge>
    <edge id=":carrick_4" function="internal">
        <lane id=":carrick_4_0" index="0" speed="10.00" length="40.03" shape="1134.28,2595.94 1130.22,2590.27 1123.72,2581.15 1116.95,2571.10 1112.08,2562.66"/>
    </edge>
    <edge id=":carrick_5" function="internal">
        <lane id=":carrick_5_0" index="0" speed="10.00" length="72.24" shape="1134.28,2595.94 1131.41,2586.09 1132.90,2571.33 1138.76,2551.66 1148.99,2527.08"/>
    </edge>
    <edge id=":carrick_6" function="internal">
        <lane id=":carrick_6_0" index="0" speed="10.00" length="63.14" shape="1134.28,2595.94 1131.36,2586.66 1132.74,2573.68 1138.44,2556.99 1148.45,2536.59"/>
    </edge>
    <edge id=":carrick_7" function="internal">
        <lane id=":carrick_7_0" index="0" speed="10.00" length="62.12" shape="1134.28,2595.94 1131.89,2586.90 1135.02,2574.86 1143.67,2559.80 1157.83,2541.72"/>
    </edge>
    <edge id=":carrick_8" function="internal">
        <lane id=":carrick_8_0" index="0" speed="10.00" length="30.50" shape="1134.28,2595.94 1130.67,2588.54 1130.33,2581.69 1133.27,2575.40 1139.49,2569.65"/>
    </edge>
    <edge id=":carrick_9" function="internal">
        <lane id=":carrick_9_0" index="0" speed="5.42" length="11.68" shape="1134.28,2595.94 1133.64,2593.04 1135.10,2590.66 1137.75,2589.55 1140.67,2590.45"/>
    </edge>
    <edge id=":carrick_10" function="internal">
        <lane id=":carrick_10_0" index="0" speed="3.65" length="4.67" shape="1134.28,2595.94 1134.28,2594.49 1134.72,2593.72 1135.61,2593.61 1136.94,2594.16"/>
    </edge>
    <edge id=":carrick_11" function="internal">
        <lane id=":carrick_11_0" index="0" speed="2.54" length="1.01" shape="1140.56,2590.59 1140.90,2590.76 1141.03,2590.79 1140.96,2590.69 1140.67,2590.45"/>
    </edge>
    <edge id=":carrick_12" function="internal">
        <lane id=":carrick_12_0" index="0" speed="5.61" length="11.81" shape="1140.56,2590.59 1136.75,2588.90 1134.88,2588.93 1134.94,2590.69 1136.94,2594.16"/>
    </edge>
    <edge id=":carrick_13" function="internal">
        <lane id=":carrick_13_0" index="0" speed="6.67" length="15.74" shape="1140.56,2590.59 1135.78,2588.64 1133.00,2588.97 1132.23,2591.58 1133.48,2596.47"/>
    </edge>
    <edge id=":carrick_14" function="internal">
        <lane id=":carrick_14_0" index="0" speed="9.46" length="18.73" shape="1140.56,2590.59 1134.22,2587.62 1129.21,2586.20 1125.56,2586.33 1123.24,2588.02"/>
    </edge>
    <edge id=":carrick_15" function="internal">
        <lane id=":carrick_15_0" index="0" speed="10.00" length="40.23" shape="1140.56,2590.59 1134.45,2585.97 1125.07,2577.81 1115.95,2569.35 1110.59,2563.84"/>
    </edge>
    <edge id=":carrick_16" function="internal">
        <lane id=":carrick_16_0" index="0" speed="10.00" length="39.43" shape="1140.56,2590.59 1134.86,2585.70 1126.43,2576.93 1118.38,2567.77 1113.83,2561.73"/>
    </edge>
    <edge id=":carrick_17" function="internal">
        <lane id=":carrick_17_0" index="0" speed="10.00" length="40.14" shape="1140.56,2590.59 1134.85,2586.50 1126.26,2579.14 1117.71,2570.51 1112.08,2562.66"/>
    </edge>
    <edge id=":carrick_18" function="internal">
        <lane id=":carrick_18_0" index="0" speed="10.00" length="68.02" shape="1140.56,2590.59 1134.85,2583.29 1134.35,2570.27 1139.06,2551.53 1148.99,2527.08"/>
    </edge>
    <edge id=":carrick_19" function="internal">
        <lane id=":carrick_19_0" index="0" speed="10.00" length="55.07" shape="1140.56,2590.59 1139.47,2582.33 1141.37,2565.69 1144.84,2548.01 1148.45,2536.59"/>
    </edge>
    <edge id=":carrick_20" function="internal">
        <lane id=":carrick_20_0" index="0" speed="10.00" length="52.48" shape="1140.56,2590.59 1140.59,2582.91 1145.37,2567.80 1152.06,2551.86 1157.83,2541.72"/>
    </edge>
    <edge id=":carrick_21" function="internal">
        <lane id=":carrick_21_0" index="0" speed="8.77" length="23.47" shape="1140.56,2590.59 1136.99,2586.49 1135.56,2580.38 1136.37,2574.14 1139.49,2569.65"/>
    </edge>
    <edge id=":carrick_22" function="internal">
        <lane id=":carrick_22_0" index="0" speed="3.62" length="4.32" shape="1140.28,2590.95 1141.70,2591.71 1142.24,2591.88 1141.90,2591.46 1140.67,2590.45"/>
    </edge>
    <edge id=":carrick_23" function="internal">
        <lane id=":carrick_23_0" index="0" speed="5.47" length="11.25" shape="1140.28,2590.95 1136.67,2589.22 1134.92,2589.18 1135.01,2590.83 1136.94,2594.16"/>
    </edge>
    <edge id=":carrick_24" function="internal">
        <lane id=":carrick_24_0" index="0" speed="6.56" length="15.35" shape="1140.28,2590.95 1135.64,2588.90 1132.96,2589.14 1132.24,2591.66 1133.48,2596.47"/>
    </edge>
    <edge id=":carrick_25" function="internal">
        <lane id=":carrick_25_0" index="0" speed="9.32" length="18.54" shape="1140.28,2590.95 1134.05,2587.83 1129.13,2586.31 1125.53,2586.37 1123.24,2588.02"/>
    </edge>
    <edge id=":carrick_26" function="internal">
        <lane id=":carrick_26_0" index="0" speed="10.00" length="40.25" shape="1140.28,2590.95 1134.23,2586.22 1124.95,2577.94 1115.91,2569.39 1110.59,2563.84"/>
    </edge>
    <edge id=":carrick_27" function="internal">
        <lane id=":carrick_27_0" index="0" speed="10.00" length="39.49" shape="1140.28,2590.95 1134.64,2585.96 1126.31,2577.06 1118.35,2567.81 1113.83,2561.73"/>
    </edge>
    <edge id=":carrick_28" function="internal">
        <lane id=":carrick_28_0" index="0" speed="10.00" length="40.17" shape="1140.28,2590.95 1134.63,2586.76 1126.14,2579.27 1117.67,2570.55 1112.08,2562.66"/>
    </edge>
    <edge id=":carrick_29" function="internal">
        <lane id=":carrick_29_0" index="0" speed="10.00" length="68.27" shape="1140.28,2590.95 1134.69,2583.47 1134.28,2570.34 1139.05,2551.54 1148.99,2527.08"/>
    </edge>
    <edge id=":carrick_30" function="internal">
        <lane id=":carrick_30_0" index="0" speed="10.00" length="59.26" shape="1140.28,2590.95 1134.62,2584.05 1134.10,2572.69 1138.71,2556.87 1148.45,2536.59"/>
    </edge>
    <edge id=":carrick_31" function="internal">
        <lane id=":carrick_31_0" index="0" speed="10.00" length="52.89" shape="1140.28,2590.95 1140.40,2583.18 1145.27,2567.94 1152.03,2551.91 1157.83,2541.72"/>
    </edge>
    <edge id=":carrick_32" function="internal">
        <lane id=":carrick_32_0" index="0" speed="8.89" length="23.81" shape="1140.28,2590.95 1136.73,2586.71 1135.38,2580.50 1136.29,2574.20 1139.49,2569.65"/>
    </edge>
    <edge id=":carrick_33" function="internal">