<?xml version="1.0" encoding="UTF-8"?>

<!-- generated on 2024-11-04 10:50:58 by Eclipse SUMO netconvert Version 1.18.0
<configuration xmlns:xsi="http://www.w3.org/2001/XMLSchema-instance" xsi:noNamespaceSchemaLocation="http://sumo.dlr.de/xsd/netconvertConfiguration.xsd">

    <input>
        <node-files value="config/workspace/nod.xml"/>
        <edge-files value="config/workspace/edg.xml"/>
    </input>

    <output>
        <output-file value="config/workspace/current_network.net.xml"/>
    </output>

</configuration>
-->

<net version="1.16" junctionCornerDetail="5" limitTurnSpeed="5.50" xmlns:xsi="http://www.w3.org/2001/XMLSchema-instance" xsi:noNamespaceSchemaLocation="http://sumo.dlr.de/xsd/net_file.xsd">

    <location netOffset="-682.00,4368.00" convBoundary="0.00,0.00,2498.00,3881.00" origBoundary="682.00,-4368.00,3180.00,-487.00" projParameter="!"/>

    <edge id=":antrim_0" function="internal">
        <lane id=":antrim_0_0" index="0" speed="9.15" length="25.97" shape="2287.20,3467.93 2286.92,3476.31 2285.41,3483.07 2282.10,3486.74 2276.45,3485.89"/>
    </edge>
    <edge id=":antrim_1" function="internal">
        <lane id=":antrim_1_0" index="0" speed="6.50" length="16.20" shape="2287.20,3467.93 2285.50,3471.12 2281.51,3473.33 2277.04,3473.91 2273.94,3472.26"/>
    </edge>
    <edge id=":antrim_2" function="internal">
        <lane id=":antrim_2_0" index="0" speed="4.80" length="9.25" shape="2287.20,3467.93 2285.97,3470.51 2284.52,3471.52 2282.84,3470.96 2280.93,3468.84"/>
    </edge>
    <edge id=":antrim_3" function="internal">
        <lane id=":antrim_3_0" index="0" speed="5.78" length="13.18" shape="2276.61,3470.49 2279.28,3474.33 2280.89,3475.34 2281.44,3473.51 2280.93,3468.84"/>
    </edge>
    <edge id=":antrim_4" function="internal">
        <lane id=":antrim_4_0" index="0" speed="7.26" length="20.49" shape="2276.61,3470.49 2279.53,3476.53 2281.05,3482.40 2280.31,3486.16 2276.45,3485.89"/>
    </edge>
    <edge id=":antrim_5" function="internal">
        <lane id=":antrim_5_0" index="0" speed="3.65" length="4.68" shape="2276.61,3470.49 2276.61,3471.93 2276.16,3472.71 2275.27,3472.82 2273.94,3472.26"/>
    </edge>
    <edge id=":antrim_6" function="internal">
        <lane id=":antrim_6_0" index="0" speed="9.92" length="48.43" shape="2275.81,3471.02 2265.56,3456.06 2261.83,3451.28 2264.62,3456.68 2273.94,3472.26"/>
    </edge>
    <edge id=":antrim_7" function="internal">
        <lane id=":antrim_7_0" index="0" speed="6.04" length="14.35" shape="2275.81,3471.02 2278.89,3474.98 2280.77,3475.93 2281.45,3473.89 2280.93,3468.84"/>
    </edge>
    <edge id=":antrim_8" function="internal">
        <lane id=":antrim_8_0" index="0" speed="6.59" length="16.89" shape="2275.81,3471.02 2277.70,3475.40 2278.83,3480.85 2278.60,3485.10 2276.45,3485.89"/>
    </edge>
    <edge id=":antrim_9" function="internal">
        <lane id=":antrim_9_0" index="0" speed="9.92" length="48.43" shape="2275.81,3471.02 2265.56,3456.06 2261.83,3451.28 2264.62,3456.68 2273.94,3472.26"/>
    </edge>
    <edge id=":antrim_10" function="internal">
        <lane id=":antrim_10_0" index="0" speed="6.04" length="14.35" shape="2275.81,3471.02 2278.89,3474.98 2280.77,3475.93 2281.45,3473.89 2280.93,3468.84"/>
    </edge>
    <edge id=":antrim_11" function="internal">
        <lane id=":antrim_11_0" index="0" speed="6.59" length="16.89" shape="2275.81,3471.02 2277.70,3475.40 2278.83,3480.85 2278.60,3485.10 2276.45,3485.89"/>
    </edge>
    <edge id=":antrim_12" function="internal">
        <lane id=":antrim_12_0" index="0" speed="5.94" length="13.14" shape="2277.96,3482.97 2279.08,3483.02 2278.79,3481.26 2277.08,3477.67 2273.94,3472.26"/>
    </edge>
    <edge id=":antrim_13" function="internal">
        <lane id=":antrim_13_0" index="0" speed="7.26" length="17.24" shape="2277.96,3482.97 2280.36,3483.25 2281.66,3480.99 2281.85,3476.19 2280.93,3468.84"/>
    </edge>
    <edge id=":antrim_14" function="internal">
        <lane id=":antrim_14_0" index="0" speed="3.69" length="4.80" shape="2277.96,3482.97 2278.68,3484.26 2278.67,3485.18 2277.93,3485.73 2276.45,3485.89"/>
    </edge>
    <edge id=":antrim_15" function="internal">
        <lane id=":antrim_15_0" index="0" speed="5.63" length="9.33" shape="2276.68,3492.56 2278.91,3490.84 2279.62,3489.16 2278.80,3487.51 2276.45,3485.89"/>
    </edge>
    <edge id=":antrim_16" function="internal">
        <lane id=":antrim_16_0" index="0" speed="9.87" length="22.47" shape="2276.68,3492.56 2279.17,3489.75 2279.55,3485.42 2277.80,3479.60 2273.94,3472.26"/>
    </edge>
    <edge id=":antrim_17" function="internal">
        <lane id=":antrim_17_0" index="0" speed="10.00" length="25.36" shape="2276.68,3492.56 2279.78,3489.44 2281.52,3484.44 2281.90,3477.57 2280.93,3468.84"/>
    </edge>
    <edge id=":athlone_0" function="internal">
        <lane id=":athlone_0_0" index="0" speed="10.00" length="21.48" shape="1251.40,1965.23 1251.84,1958.46 1253.33,1952.92 1255.00,1948.33 1255.98,1944.37"/>
    </edge>
    <edge id=":athlone_1" function="internal">
        <lane id=":athlone_1_0" index="0" speed="10.00" length="22.77" shape="1251.40,1965.23 1252.34,1958.47 1255.02,1952.97 1258.12,1948.47 1260.30,1944.69"/>
    </edge>
    <edge id=":athlone_2" function="internal">
        <lane id=":athlone_2_0" index="0" speed="10.00" length="22.90" shape="1251.40,1965.23 1252.44,1958.50 1255.34,1953.09 1258.70,1948.69 1261.11,1944.99"/>
    </edge>
    <edge id=":athlone_3" function="internal">
        <lane id=":athlone_3_0" index="0" speed="10.00" length="21.41" shape="1254.60,1965.07 1255.55,1958.60 1258.35,1953.80 1261.81,1950.13 1264.75,1947.04"/>
    </edge>
    <edge id=":athlone_4" function="internal">
        <lane id=":athlone_4_0" index="0" speed="7.17" length="19.96" shape="1254.60,1965.07 1256.23,1964.18 1260.30,1967.34 1265.07,1972.37 1268.78,1977.10"/>
    </edge>
    <edge id=":athlone_5" function="internal">
        <lane id=":athlone_5_0" index="0" speed="7.62" length="22.81" shape="1254.60,1965.07 1255.83,1962.33 1259.38,1964.84 1264.07,1970.47 1268.78,1977.10"/>
    </edge>
    <edge id=":athlone_6" function="internal">
        <lane id=":athlone_6_0" index="0" speed="7.56" length="23.04" shape="1254.60,1965.07 1255.74,1962.12 1259.05,1964.87 1263.39,1970.92 1267.63,1977.85"/>
    </edge>
    <edge id=":athlone_7" function="internal">
        <lane id=":athlone_7_0" index="0" speed="5.77" length="13.12" shape="1272.09,1973.82 1268.08,1971.45 1266.19,1971.20 1266.42,1973.09 1268.78,1977.10"/>
    </edge>
    <edge id=":athlone_8" function="internal">
        <lane id=":athlone_8_0" index="0" speed="5.77" length="13.12" shape="1272.09,1973.82 1268.08,1971.45 1266.19,1971.20 1266.42,1973.09 1268.78,1977.10"/>
    </edge>
    <edge id=":athlone_9" function="internal">
        <lane id=":athlone_9_0" index="0" speed="6.15" length="14.75" shape="1272.09,1973.82 1267.61,1971.23 1265.38,1971.04 1265.39,1973.25 1267.63,1977.85"/>
    </edge>
    <edge id=":athlone_10" function="internal">
        <lane id=":athlone_10_0" index="0" speed="10.00" length="35.30" shape="1272.09,1973.82 1264.42,1967.47 1259.18,1960.44 1256.36,1952.74 1255.98,1944.37"/>
    </edge>
    <edge id=":athlone_11" function="internal">
        <lane id=":athlone_11_0" index="0" speed="10.00" length="34.18" shape="1272.09,1973.82 1264.59,1967.42 1260.13,1960.44 1258.70,1952.86 1260.30,1944.69"/>
    </edge>
    <edge id=":athlone_12" function="internal">
        <lane id=":athlone_12_0" index="0" speed="10.00" length="33.83" shape="1272.09,1973.82 1264.62,1967.43 1260.31,1960.49 1259.14,1953.02 1261.11,1944.99"/>
    </edge>
    <edge id=":athlone_13" function="internal">
        <lane id=":athlone_13_0" index="0" speed="10.00" length="32.01" shape="1272.09,1973.82 1264.73,1967.48 1261.06,1960.90 1261.06,1954.09 1264.75,1947.04"/>
    </edge>
    <edge id=":athlone_14" function="internal">
        <lane id=":athlone_14_0" index="0" speed="6.81" length="15.14" shape="1247.52,1950.52 1250.75,1952.76 1253.24,1952.49 1254.98,1949.69 1255.98,1944.37"/>
    </edge>
    <edge id=":athlone_15" function="internal">
        <lane id=":athlone_15_0" index="0" speed="7.85" length="17.99" shape="1247.52,1950.52 1251.26,1953.01 1254.63,1952.87 1257.65,1950.10 1260.30,1944.69"/>
    </edge>
    <edge id=":athlone_16" function="internal">
        <lane id=":athlone_16_0" index="0" speed="8.06" length="18.44" shape="1247.52,1950.52 1251.34,1953.06 1254.88,1952.99 1258.14,1950.30 1261.11,1944.99"/>
    </edge>
    <edge id=":athlone_17" function="internal">
        <lane id=":athlone_17_0" index="0" speed="9.14" length="20.50" shape="1247.52,1950.52 1251.71,1953.33 1255.98,1953.69 1260.33,1951.59 1264.75,1947.04"/>
    </edge>
    <edge id=":athlone_18" function="internal">
        <lane id=":athlone_18_0" index="0" speed="10.00" length="34.05" shape="1247.52,1950.52 1251.96,1955.56 1258.45,1963.56 1264.78,1971.69 1268.78,1977.10"/>
    </edge>
    <edge id=":athlone_19" function="internal">
        <lane id=":athlone_19_0" index="0" speed="10.00" length="34.05" shape="1247.52,1950.52 1251.96,1955.56 1258.45,1963.56 1264.78,1971.69 1268.78,1977.10"/>
    </edge>
    <edge id=":athlone_20" function="internal">
        <lane id=":athlone_20_0" index="0" speed="10.00" length="33.96" shape="1247.52,1950.52 1251.82,1955.65 1257.98,1963.87 1263.94,1972.25 1267.63,1977.85"/>
    </edge>
    <edge id=":belfast_0" function="internal">
        <lane id=":belfast_0_0" index="0" speed="3.42" length="3.65" shape="2484.82,3332.97 2485.51,3334.15 2485.80,3334.52 2485.71,3334.08 2485.23,3332.82"/>
    </edge>
    <edge id=":belfast_1" function="internal">
        <lane id=":belfast_1_0" index="0" speed="6.96" length="19.74" shape="2484.82,3332.97 2489.50,3340.79 2492.68,3344.73 2494.37,3344.77 2494.56,3340.91"/>
    </edge>
    <edge id=":belfast_2" function="internal">
        <lane id=":belfast_2_0" index="0" speed="8.97" length="30.56" shape="2484.82,3332.97 2486.66,3340.97 2483.85,3347.40 2477.68,3350.84 2469.48,3349.87"/>
    </edge>
    <edge id=":belfast_3" function="internal">
        <lane id=":belfast_3_0" index="0" speed="8.14" length="26.20" shape="2484.82,3332.97 2486.18,3339.79 2483.41,3345.27 2477.91,3347.99 2471.09,3346.56"/>
    </edge>
    <edge id=":belfast_4" function="internal">
        <lane id=":belfast_4_0" index="0" speed="3.65" length="4.69" shape="2484.82,3332.97 2484.60,3334.39 2484.04,3335.10 2483.14,3335.07 2481.91,3334.32"/>
    </edge>
    <edge id=":belfast_5" function="internal">
        <lane id=":belfast_5_0" index="0" speed="3.63" length="4.41" shape="2481.42,3334.56 2482.43,3335.88 2482.84,3336.28 2482.67,3335.76 2481.91,3334.32"/>
    </edge>
    <edge id=":belfast_6" function="internal">
        <lane id=":belfast_6_0" index="0" speed="6.42" length="17.66" shape="2481.42,3334.56 2485.48,3339.69 2487.47,3341.11 2487.39,3338.82 2485.23,3332.82"/>
    </edge>
    <edge id=":belfast_7" function="internal">
        <lane id=":belfast_7_0" index="0" speed="7.58" length="22.63" shape="2481.42,3334.56 2487.65,3342.37 2491.92,3346.04 2494.23,3345.55 2494.56,3340.91"/>
    </edge>
    <edge id=":belfast_8" function="internal">
        <lane id=":belfast_8_0" index="0" speed="8.15" length="26.34" shape="2481.42,3334.56 2483.64,3341.21 2481.57,3347.04 2476.44,3350.45 2469.48,3349.87"/>
    </edge>
    <edge id=":belfast_9" function="internal">
        <lane id=":belfast_9_0" index="0" speed="7.29" length="21.74" shape="2481.42,3334.56 2483.07,3340.04 2481.07,3344.86 2476.66,3347.52 2471.09,3346.56"/>
    </edge>
    <edge id=":belfast_10" function="internal">
        <lane id=":belfast_10_0" index="0" speed="8.35" length="27.70" shape="2472.67,3343.78 2481.19,3347.69 2485.56,3347.42 2485.80,3342.96 2481.91,3334.32"/>
    </edge>
    <edge id=":belfast_11" function="internal">
        <lane id=":belfast_11_0" index="0" speed="8.90" length="30.10" shape="2472.67,3343.78 2481.75,3347.80 2486.87,3347.32 2488.03,3342.32 2485.23,3332.82"/>
    </edge>
    <edge id=":belfast_12" function="internal">
        <lane id=":belfast_12_0" index="0" speed="9.40" length="29.34" shape="2472.67,3343.78 2482.83,3348.59 2489.87,3349.72 2493.78,3347.16 2494.56,3340.91"/>
    </edge>
    <edge id=":belfast_13" function="internal">
        <lane id=":belfast_13_0" index="0" speed="4.87" length="9.68" shape="2472.67,3343.78 2474.07,3345.73 2473.64,3348.08 2471.93,3349.80 2469.48,3349.87"/>
    </edge>
    <edge id=":belfast_14" function="internal">
        <lane id=":belfast_14_0" index="0" speed="3.65" length="4.67" shape="2472.67,3343.78 2473.32,3345.07 2473.28,3345.96 2472.53,3346.46 2471.09,3346.56"/>
    </edge>
    <edge id=":belfast_15" function="internal">
        <lane id=":belfast_15_0" index="0" speed="6.91" length="19.60" shape="2478.02,3358.42 2481.98,3357.88 2481.88,3356.28 2477.71,3353.61 2469.48,3349.87"/>
    </edge>
    <edge id=":belfast_16" function="internal">
        <lane id=":belfast_16_0" index="0" speed="7.50" length="22.25" shape="2478.02,3358.42 2482.81,3357.68 2483.25,3355.45 2479.35,3351.75 2471.09,3346.56"/>
    </edge>
    <edge id=":belfast_17" function="internal">
        <lane id=":belfast_17_0" index="0" speed="9.98" length="31.41" shape="2478.02,3358.42 2484.73,3356.91 2487.62,3352.39 2486.68,3344.86 2481.91,3334.32"/>
    </edge>
    <edge id=":belfast_18" function="internal">
        <lane id=":belfast_18_0" index="0" speed="10.00" length="32.92" shape="2478.02,3358.42 2485.07,3356.81 2488.62,3352.01 2488.68,3344.01 2485.23,3332.82"/>
    </edge>
    <edge id=":belfast_19" function="internal">
        <lane id=":belfast_19_0" index="0" speed="10.00" length="28.11" shape="2478.02,3358.42 2485.88,3357.32 2491.26,3354.03 2494.16,3348.56 2494.56,3340.91"/>
    </edge>
    <edge id=":belfast_20" function="internal">
        <lane id=":belfast_20_0" index="0" speed="8.25" length="24.50" shape="2485.96,3362.95 2487.83,3361.00 2485.71,3358.18 2479.59,3354.47 2469.48,3349.87"/>
    </edge>
    <edge id=":belfast_21" function="internal">
        <lane id=":belfast_21_0" index="0" speed="8.68" length="25.72" shape="2485.96,3362.95 2488.15,3360.71 2486.40,3357.24 2480.72,3352.52 2471.09,3346.56"/>
    </edge>
    <edge id=":belfast_22" function="internal">
        <lane id=":belfast_22_0" index="0" speed="10.00" length="31.73" shape="2485.96,3362.95 2489.36,3359.74 2489.82,3353.90 2487.34,3345.43 2481.91,3334.32"/>
    </edge>
    <edge id=":belfast_23" function="internal">
        <lane id=":belfast_23_0" index="0" speed="10.00" length="32.67" shape="2485.96,3362.95 2489.64,3359.62 2490.75,3353.49 2489.28,3344.55 2485.23,3332.82"/>
    </edge>
    <edge id=":belfast_24" function="internal">
        <lane id=":belfast_24_0" index="0" speed="10.00" length="25.42" shape="2485.96,3362.95 2490.37,3360.07 2493.28,3355.44 2494.67,3349.05 2494.56,3340.91"/>
    </edge>
    <edge id=":bray_0" function="internal">
        <lane id=":bray_0_0" index="0" speed="10.00" length="39.88" shape="2435.33,1654.85 2440.15,1659.12 2441.90,1666.67 2440.58,1677.50 2436.19,1691.62"/>
    </edge>
    <edge id=":bray_1" function="internal">
        <lane id=":bray_1_0" index="0" speed="10.00" length="36.47" shape="2435.33,1654.85 2437.54,1660.12 2437.39,1670.35 2435.57,1681.70 2432.78,1690.29"/>
    </edge>
    <edge id=":bray_2" function="internal">
        <lane id=":bray_2_0" index="0" speed="10.00" length="40.29" shape="2435.33,1654.85 2440.42,1659.93 2440.17,1667.94 2435.79,1678.22 2428.53,1690.09"/>
    </edge>
    <edge id=":bray_3" function="internal">
        <lane id=":bray_3_0" index="0" speed="3.65" length="4.67" shape="2435.33,1654.85 2436.13,1656.05 2436.19,1656.94 2435.52,1657.53 2434.10,1657.81"/>
    </edge>
    <edge id=":bray_4" function="internal">
        <lane id=":bray_4_0" index="0" speed="5.64" length="10.65" shape="2432.84,1664.11 2436.20,1662.52 2437.53,1660.93 2436.83,1659.36 2434.10,1657.81"/>
    </edge>
    <edge id=":bray_5" function="internal">
        <lane id=":bray_5_0" index="0" speed="10.00" length="35.13" shape="2432.84,1664.11 2439.71,1664.34 2441.51,1670.64 2439.82,1680.56 2436.19,1691.62"/>
    </edge>
    <edge id=":bray_6" function="internal">
        <lane id=":bray_6_0" index="0" speed="8.97" length="29.50" shape="2432.84,1664.11 2436.85,1665.84 2437.38,1673.16 2435.62,1682.50 2432.78,1690.29"/>
    </edge>
    <edge id=":bray_7" function="internal">
        <lane id=":bray_7_0" index="0" speed="8.77" length="29.63" shape="2432.84,1664.11 2436.33,1665.87 2435.60,1673.23 2432.42,1682.52 2428.53,1690.09"/>
    </edge>
    <edge id=":bray_8" function="internal">
        <lane id=":bray_8_0" index="0" speed="7.09" length="23.06" shape="2426.98,1687.57 2423.04,1695.60 2421.98,1698.70 2423.82,1696.86 2428.53,1690.09"/>
    </edge>
    <edge id=":bray_9" function="internal">
        <lane id=":bray_9_0" index="0" speed="10.00" length="32.22" shape="2426.98,1687.57 2432.61,1675.59 2435.68,1666.64 2436.18,1660.71 2434.10,1657.81"/>
    </edge>
    <edge id=":bray_10" function="internal">
        <lane id=":bray_10_0" index="0" speed="4.86" length="9.65" shape="2429.89,1688.90 2431.80,1687.39 2434.20,1687.65 2436.02,1689.21 2436.19,1691.62"/>
    </edge>
    <edge id=":bray_11" function="internal">
        <lane id=":bray_11_0" index="0" speed="3.65" length="4.67" shape="2429.89,1688.90 2431.13,1688.17 2432.03,1688.15 2432.58,1688.86 2432.78,1690.29"/>
    </edge>
    <edge id=":bray_12" function="internal">
        <lane id=":bray_12_0" index="0" speed="6.63" length="19.08" shape="2433.54,1689.57 2435.50,1683.58 2435.31,1681.67 2432.99,1683.84 2428.53,1690.09"/>
    </edge>
    <edge id=":bray_13" function="internal">
        <lane id=":bray_13_0" index="0" speed="10.00" length="34.14" shape="2433.54,1689.57 2437.48,1677.20 2438.89,1667.79 2437.76,1661.32 2434.10,1657.81"/>
    </edge>
    <edge id=":bray_14" function="internal">
        <lane id=":bray_14_0" index="0" speed="3.41" length="3.63" shape="2433.54,1689.57 2433.91,1688.52 2433.90,1688.29 2433.52,1688.88 2432.78,1690.29"/>
    </edge>
    <edge id=":bray_15" function="internal">
        <lane id=":bray_15_0" index="0" speed="3.71" length="4.89" shape="2433.54,1689.57 2434.97,1689.09 2435.89,1689.27 2436.30,1690.11 2436.19,1691.62"/>
    </edge>
    <edge id=":carlow_0" function="internal">
        <lane id=":carlow_0_0" index="0" speed="7.63" length="25.53" shape="1889.55,1182.07 1887.59,1173.04 1885.83,1170.10 1884.29,1173.26 1882.95,1182.51"/>
    </edge>
    <edge id=":carlow_1" function="internal">
        <lane id=":carlow_1_0" index="0" speed="7.83" length="26.76" shape="1889.55,1182.07 1887.47,1172.68 1885.53,1169.64 1883.73,1172.93 1882.07,1182.57"/>
    </edge>
    <edge id=":carlow_2" function="internal">
        <lane id=":carlow_2_0" index="0" speed="7.91" length="27.26" shape="1889.55,1182.07 1887.42,1172.55 1885.40,1169.46 1883.49,1172.81 1881.68,1182.59"/>
    </edge>
    <edge id=":carlow_3" function="internal">
        <lane id=":carlow_3_0" index="0" speed="8.48" length="30.56" shape="1889.55,1182.07 1887.07,1171.65 1884.41,1168.21 1881.55,1171.74 1878.50,1182.26"/>
    </edge>
    <edge id=":carlow_4" function="internal">
        <lane id=":carlow_4_0" index="0" speed="8.66" length="29.31" shape="1889.55,1182.07 1886.81,1169.63 1883.85,1162.98 1880.66,1162.11 1877.23,1167.02"/>
    </edge>
    <edge id=":carlow_5" function="internal">
        <lane id=":carlow_5_0" index="0" speed="8.86" length="30.18" shape="1889.55,1182.07 1886.73,1169.46 1883.58,1162.68 1880.11,1161.72 1876.30,1166.59"/>
    </edge>
    <edge id=":carlow_6" function="internal">
        <lane id=":carlow_6_0" index="0" speed="9.03" length="30.88" shape="1889.55,1182.07 1886.66,1169.33 1883.37,1162.45 1879.66,1161.42 1875.55,1166.24"/>
    </edge>
    <edge id=":carlow_7" function="internal">
        <lane id=":carlow_7_0" index="0" speed="10.00" length="37.52" shape="1889.55,1182.07 1886.11,1168.38 1881.46,1160.41 1875.59,1158.15 1868.50,1161.60"/>
    </edge>
    <edge id=":carlow_8" function="internal">
        <lane id=":carlow_8_0" index="0" speed="10.00" length="37.65" shape="1889.55,1182.07 1886.53,1167.03 1883.37,1156.34 1880.07,1149.98 1876.63,1147.96"/>
    </edge>
    <edge id=":carlow_9" function="internal">
        <lane id=":carlow_9_0" index="0" speed="10.00" length="41.56" shape="1889.55,1182.07 1887.99,1174.23 1885.11,1161.54 1881.71,1149.12 1878.58,1142.11"/>
    </edge>
    <edge id=":carlow_10" function="internal">
        <lane id=":carlow_10_0" index="0" speed="10.00" length="41.77" shape="1889.55,1182.07 1888.01,1174.21 1885.18,1161.46 1881.87,1148.94 1878.89,1141.80"/>
    </edge>
    <edge id=":carlow_11" function="internal">
        <lane id=":carlow_11_0" index="0" speed="10.00" length="44.66" shape="1889.55,1182.07 1888.61,1173.64 1887.56,1159.59 1887.15,1145.64 1888.12,1137.57"/>
    </edge>
    <edge id=":carlow_12" function="internal">
        <lane id=":carlow_12_0" index="0" speed="3.92" length="5.71" shape="1889.55,1182.07 1890.43,1180.54 1891.37,1179.99 1892.38,1180.41 1893.45,1181.81"/>
    </edge>
    <edge id=":carlow_13" function="internal">
        <lane id=":carlow_13_0" index="0" speed="4.76" length="8.81" shape="1869.90,1162.95 1871.78,1160.32 1872.17,1159.22 1871.08,1159.64 1868.50,1161.60"/>
    </edge>
    <edge id=":carlow_14" function="internal">
        <lane id=":carlow_14_0" index="0" speed="7.36" length="18.20" shape="1869.90,1162.95 1874.72,1156.31 1877.45,1151.60 1878.08,1148.82 1876.63,1147.96"/>
    </edge>
    <edge id=":carlow_15" function="internal">
        <lane id=":carlow_15_0" index="0" speed="10.00" length="23.71" shape="1869.90,1162.95 1875.30,1155.35 1878.55,1149.35 1879.64,1144.93 1878.58,1142.11"/>
    </edge>
    <edge id=":carlow_16" function="internal">
        <lane id=":carlow_16_0" index="0" speed="10.00" length="24.04" shape="1869.90,1162.95 1875.34,1155.31 1878.65,1149.24 1879.83,1144.73 1878.89,1141.80"/>
    </edge>
    <edge id=":carlow_17" function="internal">
        <lane id=":carlow_17_0" index="0" speed="10.00" length="31.25" shape="1869.90,1162.95 1873.67,1157.92 1879.20,1150.39 1884.63,1142.79 1888.12,1137.57"/>
    </edge>
    <edge id=":carlow_18" function="internal">
        <lane id=":carlow_18_0" index="0" speed="10.00" length="39.37" shape="1869.90,1162.95 1877.46,1157.98 1884.34,1161.23 1889.89,1170.05 1893.45,1181.81"/>
    </edge>
    <edge id=":carlow_19" function="internal">
        <lane id=":carlow_19_0" index="0" speed="8.25" length="26.87" shape="1869.90,1162.95 1874.07,1162.29 1878.51,1167.48 1881.91,1175.29 1882.95,1182.51"/>
    </edge>
    <edge id=":carlow_20" function="internal">
        <lane id=":carlow_20_0" index="0" speed="8.14" length="26.38" shape="1869.90,1162.95 1873.92,1162.37 1878.10,1167.61 1881.23,1175.42 1882.07,1182.57"/>
    </edge>
    <edge id=":carlow_21" function="internal">
        <lane id=":carlow_21_0" index="0" speed="8.09" length="26.17" shape="1869.90,1162.95 1873.85,1162.41 1877.92,1167.67 1880.93,1175.48 1881.68,1182.59"/>
    </edge>
    <edge id=":carlow_22" function="internal">
        <lane id=":carlow_22_0" index="0" speed="7.66" length="24.12" shape="1869.90,1162.95 1873.27,1162.65 1876.39,1167.93 1878.41,1175.56 1878.50,1182.26"/>
    </edge>
    <edge id=":carlow_23" function="internal">
        <lane id=":carlow_23_0" index="0" speed="5.36" length="11.71" shape="1869.90,1162.95 1872.52,1161.43 1875.36,1162.01 1877.30,1164.07 1877.23,1167.02"/>
    </edge>
    <edge id=":carlow_24" function="internal">
        <lane id=":carlow_24_0" index="0" speed="5.05" length="10.32" shape="1869.90,1162.95 1872.21,1161.64 1874.74,1162.19 1876.44,1164.03 1876.30,1166.59"/>
    </edge>
    <edge id=":carlow_25" function="internal">
        <lane id=":carlow_25_0" index="0" speed="4.86" length="9.55" shape="1869.90,1162.95 1872.54,1161.66 1874.37,1161.77 1875.37,1163.30 1875.55,1166.24"/>
    </edge>
    <edge id=":carlow_26" function="internal">
        <lane id=":carlow_26_0" index="0" speed="6.26" length="15.72" shape="1873.08,1165.11 1875.34,1160.08 1875.33,1157.82 1873.05,1158.32 1868.50,1161.60"/>
    </edge>
    <edge id=":carlow_27" function="internal">
        <lane id=":carlow_27_0" index="0" speed="7.91" length="19.45" shape="1873.08,1165.11 1876.75,1157.52 1878.57,1152.13 1878.52,1148.94 1876.63,1147.96"/>
    </edge>
    <edge id=":carlow_28" function="internal">
        <lane id=":carlow_28_0" index="0" speed="10.00" length="24.60" shape="1873.08,1165.11 1877.15,1156.63 1879.43,1149.97 1879.90,1145.13 1878.58,1142.11"/>
    </edge>
    <edge id=":carlow_29" function="internal">
        <lane id=":carlow_29_0" index="0" speed="10.00" length="24.90" shape="1873.08,1165.11 1877.18,1156.58 1879.52,1149.86 1880.09,1144.93 1878.89,1141.80"/>
    </edge>
    <edge id=":carlow_30" function="internal">
        <lane id=":carlow_30_0" index="0" speed="10.00" length="31.38" shape="1873.08,1165.11 1888.12,1137.57"/>
    </edge>
    <edge id=":carlow_31" function="internal">
        <lane id=":carlow_31_0" index="0" speed="9.56" length="34.91" shape="1873.08,1165.11 1878.77,1160.24 1884.81,1163.22 1890.08,1171.32 1893.45,1181.81"/>
    </edge>
    <edge id=":carlow_32" function="internal">
        <lane id=":carlow_32_0" index="0" speed="7.98" length="26.89" shape="1873.08,1165.11 1876.97,1162.13 1880.38,1165.98 1882.61,1173.75 1882.95,1182.51"/>
    </edge>
    <edge id=":carlow_33" function="internal">
        <lane id=":carlow_33_0" index="0" speed="7.29" length="22.34" shape="1873.08,1165.11 1875.89,1164.48 1879.03,1169.23 1881.44,1176.29 1882.07,1182.57"/>
    </edge>
    <edge id=":carlow_34" function="internal">
        <lane id=":carlow_34_0" index="0" speed="7.25" length="22.15" shape="1873.08,1165.11 1875.83,1164.52 1878.85,1169.29 1881.13,1176.34 1881.68,1182.59"/>
    </edge>
    <edge id=":carlow_35" function="internal">
        <lane id=":carlow_35_0" index="0" speed="6.87" length="20.31" shape="1873.08,1165.11 1875.30,1164.73 1877.34,1169.50 1878.60,1176.37 1878.50,1182.26"/>
    </edge>
    <edge id=":carlow_36" function="internal">
        <lane id=":carlow_36_0" index="0" speed="3.87" length="5.42" shape="1873.08,1165.11 1874.12,1164.65 1875.66,1165.04 1876.95,1165.95 1877.23,1167.02"/>
    </edge>
    <edge id=":carlow_37" function="internal">
        <lane id=":carlow_37_0" index="0" speed="10.00" length="122.86" shape="1873.08,1165.11 1851.72,1205.87 1845.00,1219.64 1852.95,1206.44 1875.55,1166.24"/>
    </edge>
    <edge id=":carlow_38" function="internal">
        <lane id=":carlow_38_0" index="0" speed="3.79" length="5.18" shape="1873.08,1165.11 1874.44,1164.27 1875.43,1164.24 1876.05,1165.01 1876.30,1166.59"/>
    </edge>
    <edge id=":carrick_0" function="internal">
        <lane id=":carrick_0_0" index="0" speed="5.52" length="9.50" shape="1134.62,2587.74 1131.89,2586.59 1130.12,2586.82 1129.32,2588.41 1129.49,2591.37"/>
    </edge>
    <edge id=":carrick_1" function="internal">
        <lane id=":carrick_1_0" index="0" speed="10.00" length="26.45" shape="1134.62,2587.74 1130.49,2583.97 1128.87,2578.77 1129.75,2572.15 1133.13,2564.10"/>
    </edge>
    <edge id=":carrick_2" function="internal">
        <lane id=":carrick_2_0" index="0" speed="9.80" length="25.07" shape="1134.62,2587.74 1130.57,2584.04 1129.52,2579.27 1131.48,2573.42 1136.43,2566.48"/>
    </edge>
    <edge id=":carrick_3" function="internal">
        <lane id=":carrick_3_0" index="0" speed="3.65" length="4.67" shape="1134.62,2587.74 1133.98,2586.45 1134.02,2585.56 1134.77,2585.06 1136.20,2584.95"/>
    </edge>
    <edge id=":carrick_4" function="internal">
        <lane id=":carrick_4_0" index="0" speed="7.57" length="17.26" shape="1142.45,2572.39 1137.05,2576.37 1134.21,2579.80 1133.93,2582.66 1136.20,2584.95"/>
    </edge>
    <edge id=":carrick_5" function="internal">
        <lane id=":carrick_5_0" index="0" speed="10.00" length="24.28" shape="1142.45,2572.39 1136.13,2577.10 1131.87,2581.83 1129.65,2586.59 1129.49,2591.37"/>
    </edge>
    <edge id=":carrick_6" function="internal">
        <lane id=":carrick_6_0" index="0" speed="6.63" length="16.97" shape="1142.45,2572.39 1138.07,2573.53 1134.38,2571.94 1132.40,2568.50 1133.13,2564.10"/>
    </edge>
    <edge id=":carrick_7" function="internal">
        <lane id=":carrick_7_0" index="0" speed="5.53" length="12.32" shape="1142.45,2572.39 1138.73,2573.17 1136.48,2572.44 1135.72,2570.21 1136.43,2566.48"/>
    </edge>
    <edge id=":castlebar_0" function="internal">
        <lane id=":castlebar_0_0" index="0" speed="5.67" length="12.31" shape="316.54,2454.61 312.42,2453.22 310.56,2453.41 310.96,2455.18 313.61,2458.53"/>
    </edge>
    <edge id=":castlebar_1" function="internal">
        <lane id=":castlebar_1_0" index="0" speed="10.00" length="27.47" shape="316.54,2454.61 308.64,2450.55 303.24,2445.96 300.34,2440.86 299.94,2435.25"/>
    </edge>
    <edge id=":castlebar_2" function="internal">
        <lane id=":castlebar_2_0" index="0" speed="10.00" length="43.14" shape="316.54,2454.61 314.20,2448.08 315.37,2435.63 318.69,2422.32 322.78,2413.22"/>
    </edge>
    <edge id=":castlebar_3" function="internal">
        <lane id=":castlebar_3_0" index="0" speed="9.94" length="36.63" shape="316.54,2454.61 315.52,2449.72 321.90,2442.06 331.38,2434.47 339.67,2429.79"/>
    </edge>
    <edge id=":castlebar_4" function="internal">
        <lane id=":castlebar_4_0" index="0" speed="5.29" length="11.22" shape="316.54,2454.61 314.53,2452.60 314.48,2449.89 316.03,2447.61 318.85,2446.89"/>
    </edge>
    <edge id=":castlebar_5" function="internal">
        <lane id=":castlebar_5_0" index="0" speed="6.19" length="17.18" shape="316.54,2454.61 322.53,2457.00 324.64,2457.57 322.88,2456.32 317.26,2453.26"/>
    </edge>
    <edge id=":castlebar_6" function="internal">