<?xml version="1.0" encoding="UTF-8"?>

<!-- generated on 2024-10-24 13:52:01 by Eclipse SUMO netconvert Version 1.19.0
<configuration xmlns:xsi="http://www.w3.org/2001/XMLSchema-instance" xsi:noNamespaceSchemaLocation="http://sumo.dlr.de/xsd/netconvertConfiguration.xsd">

    <input>
        <node-files value="config/workspace/nod.xml"/>
        <edge-files value="config/workspace/edg.xml"/>
    </input>

    <output>
        <output-file value="config/workspace/current_network.net.xml"/>
    </output>

</configuration>
-->

<net version="1.16" junctionCornerDetail="5" limitTurnSpeed="5.50" xmlns:xsi="http://www.w3.org/2001/XMLSchema-instance" xsi:noNamespaceSchemaLocation="http://sumo.dlr.de/xsd/net_file.xsd">

    <location netOffset="-682.00,4368.00" convBoundary="0.00,0.00,2498.00,3881.00" origBoundary="682.00,-4368.00,3180.00,-487.00" projParameter="!"/>

    <edge id=":antrim_0" function="internal">
        <lane id=":antrim_0_0" index="0" speed="10.00" length="47.56" shape="2286.82,3448.35 2286.68,3466.82 2285.46,3480.66 2283.16,3489.87 2279.78,3494.46"/>
    </edge>
    <edge id=":antrim_1" function="internal">
        <lane id=":antrim_1_0" index="0" speed="10.00" length="55.17" shape="2286.82,3448.35 2285.30,3464.70 2279.78,3476.14 2269.88,3481.37 2255.20,3479.07"/>
    </edge>
    <edge id=":antrim_2" function="internal">
        <lane id=":antrim_2_0" index="0" speed="10.00" length="51.77" shape="2286.82,3448.35 2285.13,3463.63 2279.46,3474.40 2269.94,3479.00 2256.69,3475.74"/>
    </edge>
    <edge id=":antrim_3" function="internal">
        <lane id=":antrim_3_0" index="0" speed="10.00" length="58.15" shape="2286.82,3448.35 2282.94,3462.39 2272.46,3467.94 2258.24,3465.97 2243.10,3457.45"/>
    </edge>
    <edge id=":antrim_4" function="internal">
        <lane id=":antrim_4_0" index="0" speed="10.00" length="52.30" shape="2286.82,3448.35 2283.01,3460.40 2273.05,3464.29 2260.13,3461.12 2247.41,3451.98"/>
    </edge>
    <edge id=":antrim_5" function="internal">
        <lane id=":antrim_5_0" index="0" speed="10.00" length="40.52" shape="2286.82,3448.35 2283.75,3458.14 2275.91,3462.32 2266.10,3460.87 2257.14,3453.73"/>
    </edge>
    <edge id=":antrim_6" function="internal">
        <lane id=":antrim_6_0" index="0" speed="8.66" length="30.22" shape="2286.82,3448.35 2283.47,3453.44 2275.61,3455.62 2266.87,3454.78 2260.88,3450.81"/>
    </edge>
    <edge id=":antrim_7" function="internal">
        <lane id=":antrim_7_0" index="0" speed="8.11" length="28.19" shape="2286.82,3448.35 2284.35,3454.04 2278.40,3454.61 2271.61,3451.06 2266.66,3444.34"/>
    </edge>
    <edge id=":antrim_8" function="internal">
        <lane id=":antrim_8_0" index="0" speed="6.75" length="20.41" shape="2286.82,3448.35 2285.35,3451.45 2281.85,3449.52 2278.05,3444.47 2275.69,3438.25"/>
    </edge>
    <edge id=":antrim_9" function="internal">
        <lane id=":antrim_9_0" index="0" speed="7.49" length="25.08" shape="2286.82,3448.35 2279.70,3451.37 2274.93,3450.80 2272.53,3446.64 2272.48,3438.90"/>
    </edge>
    <edge id=":antrim_10" function="internal">
        <lane id=":antrim_10_0" index="0" speed="10.00" length="58.32" shape="2282.06,3437.16 2284.03,3460.51 2284.31,3477.84 2282.89,3489.16 2279.78,3494.46"/>
    </edge>
    <edge id=":antrim_11" function="internal">
        <lane id=":antrim_11_0" index="0" speed="10.00" length="63.00" shape="2282.06,3437.16 2282.74,3456.69 2279.44,3472.09 2270.73,3480.51 2255.20,3479.07"/>
    </edge>
    <edge id=":antrim_12" function="internal">
        <lane id=":antrim_12_0" index="0" speed="10.00" length="59.26" shape="2282.06,3437.16 2282.46,3455.60 2278.95,3470.41 2270.66,3478.24 2256.69,3475.74"/>
    </edge>
    <edge id=":antrim_13" function="internal">
        <lane id=":antrim_13_0" index="0" speed="10.00" length="57.92" shape="2282.06,3437.16 2279.77,3452.69 2270.76,3462.05 2257.66,3464.04 2243.10,3457.45"/>
    </edge>
    <edge id=":antrim_14" function="internal">
        <lane id=":antrim_14_0" index="0" speed="10.00" length="40.88" shape="2282.06,3437.16 2277.92,3444.10 2267.43,3450.26 2255.59,3453.58 2247.41,3451.98"/>
    </edge>
    <edge id=":antrim_15" function="internal">
        <lane id=":antrim_15_0" index="0" speed="9.99" length="40.53" shape="2282.06,3437.16 2280.33,3448.59 2274.04,3456.60 2265.53,3459.04 2257.14,3453.73"/>
    </edge>
    <edge id=":antrim_16" function="internal">
        <lane id=":antrim_16_0" index="0" speed="8.40" length="29.31" shape="2282.06,3437.16 2279.74,3443.83 2273.45,3449.81 2266.16,3452.88 2260.88,3450.81"/>
    </edge>
    <edge id=":antrim_17" function="internal">
        <lane id=":antrim_17_0" index="0" speed="7.36" length="23.60" shape="2282.06,3437.16 2280.57,3443.48 2276.04,3447.57 2270.67,3448.25 2266.66,3444.34"/>
    </edge>
    <edge id=":antrim_18" function="internal">
        <lane id=":antrim_18_0" index="0" speed="5.63" length="13.69" shape="2282.06,3437.16 2280.98,3440.44 2277.96,3442.02 2274.59,3441.61 2272.48,3438.90"/>
    </edge>
    <edge id=":antrim_19" function="internal">
        <lane id=":antrim_19_0" index="0" speed="4.78" length="9.44" shape="2282.06,3437.16 2280.88,3439.82 2279.42,3440.89 2277.69,3440.37 2275.69,3438.25"/>
    </edge>
    <edge id=":antrim_20" function="internal">
        <lane id=":antrim_20_0" index="0" speed="4.16" length="6.60" shape="2272.03,3439.01 2272.80,3441.36 2273.13,3442.13 2273.02,3441.31 2272.48,3438.90"/>
    </edge>
    <edge id=":antrim_21" function="internal">
        <lane id=":antrim_21_0" index="0" speed="7.80" length="28.21" shape="2272.03,3439.01 2275.40,3448.98 2277.13,3452.18 2277.23,3448.60 2275.69,3438.25"/>
    </edge>
    <edge id=":antrim_22" function="internal">
        <lane id=":antrim_22_0" index="0" speed="10.00" length="57.31" shape="2272.03,3439.01 2278.47,3461.50 2281.91,3478.24 2282.34,3489.23 2279.78,3494.46"/>
    </edge>
    <edge id=":antrim_23" function="internal">
        <lane id=":antrim_23_0" index="0" speed="10.00" length="56.31" shape="2272.03,3439.01 2275.62,3456.19 2274.79,3470.88 2268.37,3479.65 2255.20,3479.07"/>
    </edge>
    <edge id=":antrim_24" function="internal">
        <lane id=":antrim_24_0" index="0" speed="10.00" length="52.19" shape="2272.03,3439.01 2275.19,3455.07 2274.21,3469.08 2268.31,3477.23 2256.69,3475.74"/>
    </edge>
    <edge id=":antrim_25" function="internal">
        <lane id=":antrim_25_0" index="0" speed="10.00" length="46.26" shape="2272.03,3439.01 2272.02,3451.22 2265.33,3459.46 2254.75,3462.08 2243.10,3457.45"/>
    </edge>
    <edge id=":antrim_26" function="internal">
        <lane id=":antrim_26_0" index="0" speed="8.82" length="32.10" shape="2272.03,3439.01 2270.18,3445.51 2263.05,3451.05 2254.26,3453.82 2247.41,3451.98"/>
    </edge>
    <edge id=":antrim_27" function="internal">
        <lane id=":antrim_27_0" index="0" speed="8.18" length="28.82" shape="2272.03,3439.01 2272.16,3447.29 2268.53,3454.00 2262.93,3456.89 2257.14,3453.73"/>
    </edge>
    <edge id=":antrim_28" function="internal">
        <lane id=":antrim_28_0" index="0" speed="6.63" length="18.96" shape="2272.03,3439.01 2271.37,3443.68 2268.12,3448.58 2264.04,3451.64 2260.88,3450.81"/>
    </edge>
    <edge id=":antrim_29" function="internal">
        <lane id=":antrim_29_0" index="0" speed="5.01" length="10.57" shape="2272.03,3439.01 2271.94,3442.09 2270.40,3444.65 2268.33,3445.72 2266.66,3444.34"/>
    </edge>
    <edge id=":antrim_30" function="internal">
        <lane id=":antrim_30_0" index="0" speed="7.82" length="28.25" shape="2269.64,3443.17 2273.44,3452.08 2275.18,3454.34 2274.86,3449.95 2272.48,3438.90"/>
    </edge>
    <edge id=":antrim_31" function="internal">
        <lane id=":antrim_31_0" index="0" speed="8.80" length="35.53" shape="2269.64,3443.17 2274.58,3454.44 2277.24,3457.37 2277.61,3451.98 2275.69,3438.25"/>
    </edge>
    <edge id=":antrim_32" function="internal">
        <lane id=":antrim_32_0" index="0" speed="10.00" length="53.79" shape="2269.64,3443.17 2277.15,3463.82 2281.35,3479.25 2282.22,3489.47 2279.78,3494.46"/>
    </edge>
    <edge id=":antrim_33" function="internal">
        <lane id=":antrim_33_0" index="0" speed="10.00" length="41.41" shape="2269.64,3443.17 2269.93,3452.71 2266.76,3465.40 2261.43,3475.95 2255.20,3479.07"/>
    </edge>
    <edge id=":antrim_34" function="internal">
        <lane id=":antrim_34_0" index="0" speed="10.00" length="38.08" shape="2269.64,3443.17 2270.10,3452.32 2267.35,3464.08 2262.50,3473.52 2256.69,3475.74"/>
    </edge>
    <edge id=":antrim_35" function="internal">
        <lane id=":antrim_35_0" index="0" speed="9.18" length="34.07" shape="2269.64,3443.17 2267.85,3449.66 2260.22,3455.46 2250.66,3458.69 2243.10,3457.45"/>
    </edge>
    <edge id=":antrim_36" function="internal">
        <lane id=":antrim_36_0" index="0" speed="8.14" length="27.90" shape="2269.64,3443.17 2268.18,3448.47 2261.71,3452.49 2253.65,3454.04 2247.41,3451.98"/>
    </edge>
    <edge id=":antrim_37" function="internal">
        <lane id=":antrim_37_0" index="0" speed="6.70" length="19.20" shape="2269.64,3443.17 2268.99,3447.57 2265.38,3451.98 2260.77,3454.62 2257.14,3453.73"/>
    </edge>
    <edge id=":antrim_38" function="internal">
        <lane id=":antrim_38_0" index="0" speed="5.67" length="13.67" shape="2269.64,3443.17 2269.15,3446.35 2266.55,3449.58 2263.30,3451.52 2260.88,3450.81"/>
    </edge>
    <edge id=":antrim_39" function="internal">
        <lane id=":antrim_39_0" index="0" speed="3.65" length="4.67" shape="2269.64,3443.17 2269.33,3444.58 2268.74,3445.24 2267.85,3445.17 2266.66,3444.34"/>
    </edge>
    <edge id=":antrim_40" function="internal">
        <lane id=":antrim_40_0" index="0" speed="8.14" length="30.62" shape="2268.91,3443.46 2273.22,3453.08 2275.26,3455.52 2275.01,3450.80 2272.48,3438.90"/>
    </edge>
    <edge id=":antrim_41" function="internal">
        <lane id=":antrim_41_0" index="0" speed="8.98" length="36.81" shape="2268.91,3443.46 2274.24,3455.02 2277.15,3458.00 2277.64,3452.41 2275.69,3438.25"/>
    </edge>
    <edge id=":antrim_42" function="internal">
        <lane id=":antrim_42_0" index="0" speed="10.00" length="53.68" shape="2268.91,3443.46 2276.75,3463.98 2281.18,3479.32 2282.19,3489.48 2279.78,3494.46"/>
    </edge>
    <edge id=":antrim_43" function="internal">
        <lane id=":antrim_43_0" index="0" speed="10.00" length="40.92" shape="2268.91,3443.46 2269.37,3452.93 2266.45,3465.52 2261.33,3475.99 2255.20,3479.07"/>
    </edge>
    <edge id=":antrim_44" function="internal">
        <lane id=":antrim_44_0" index="0" speed="9.97" length="37.59" shape="2268.91,3443.46 2269.54,3452.54 2267.03,3464.20 2262.41,3473.56 2256.69,3475.74"/>
    </edge>
    <edge id=":antrim_45" function="internal">
        <lane id=":antrim_45_0" index="0" speed="9.06" length="33.39" shape="2268.91,3443.46 2267.29,3449.88 2259.90,3455.59 2250.56,3458.73 2243.10,3457.45"/>
    </edge>
    <edge id=":antrim_46" function="internal">
        <lane id=":antrim_46_0" index="0" speed="7.99" length="27.00" shape="2268.91,3443.46 2267.55,3448.57 2261.29,3452.45 2253.46,3453.97 2247.41,3451.98"/>
    </edge>
    <edge id=":antrim_47" function="internal">
        <lane id=":antrim_47_0" index="0" speed="6.55" length="18.34" shape="2268.91,3443.46 2268.35,3447.67 2264.95,3451.95 2260.59,3454.55 2257.14,3453.73"/>
    </edge>
    <edge id=":antrim_48" function="internal">
        <lane id=":antrim_48_0" index="0" speed="5.50" length="12.80" shape="2268.91,3443.46 2268.50,3446.46 2266.12,3449.55 2263.13,3451.44 2260.88,3450.81"/>
    </edge>
    <edge id=":antrim_49" function="internal">
        <lane id=":antrim_49_0" index="0" speed="10.00" length="149.21" shape="2268.91,3443.46 2247.39,3391.81 2239.85,3374.74 2246.27,3392.25 2266.66,3444.34"/>
    </edge>
    <edge id=":antrim_50" function="internal">
        <lane id=":antrim_50_0" index="0" speed="8.26" length="31.51" shape="2268.59,3443.58 2273.12,3453.46 2275.28,3455.97 2275.07,3451.12 2272.48,3438.90"/>
    </edge>
    <edge id=":antrim_51" function="internal">
        <lane id=":antrim_51_0" index="0" speed="9.05" length="37.32" shape="2268.59,3443.58 2274.09,3455.25 2277.11,3458.25 2277.64,3452.58 2275.69,3438.25"/>
    </edge>
    <edge id=":antrim_52" function="internal">
        <lane id=":antrim_52_0" index="0" speed="10.00" length="53.64" shape="2268.59,3443.58 2276.57,3464.05 2281.10,3479.35 2282.17,3489.49 2279.78,3494.46"/>
    </edge>
    <edge id=":antrim_53" function="internal">
        <lane id=":antrim_53_0" index="0" speed="10.00" length="40.71" shape="2268.59,3443.58 2269.12,3453.03 2266.31,3465.58 2261.29,3476.00 2255.20,3479.07"/>
    </edge>
    <edge id=":antrim_54" function="internal">
        <lane id=":antrim_54_0" index="0" speed="9.93" length="37.39" shape="2268.59,3443.58 2269.30,3452.63 2266.90,3464.25 2262.37,3473.58 2256.69,3475.74"/>
    </edge>
    <edge id=":antrim_55" function="internal">
        <lane id=":antrim_55_0" index="0" speed="9.01" length="33.09" shape="2268.59,3443.58 2267.05,3449.98 2259.76,3455.64 2250.52,3458.75 2243.10,3457.45"/>
    </edge>
    <edge id=":antrim_56" function="internal">
        <lane id=":antrim_56_0" index="0" speed="7.93" length="26.60" shape="2268.59,3443.58 2267.27,3448.61 2261.10,3452.44 2253.38,3453.94 2247.41,3451.98"/>
    </edge>
    <edge id=":antrim_57" function="internal">
        <lane id=":antrim_57_0" index="0" speed="6.48" length="17.96" shape="2268.59,3443.58 2268.07,3447.72 2264.76,3451.94 2260.51,3454.51 2257.14,3453.73"/>
    </edge>
    <edge id=":antrim_58" function="internal">
        <lane id=":antrim_58_0" index="0" speed="10.00" length="89.38" shape="2268.59,3443.58 2255.45,3412.75 2250.75,3402.60 2254.48,3413.13 2266.66,3444.34"/>
    </edge>
    <edge id=":antrim_59" function="internal">
        <lane id=":antrim_59_0" index="0" speed="5.95" length="15.43" shape="2268.59,3443.58 2269.37,3448.28 2268.35,3451.05 2265.52,3451.89 2260.88,3450.81"/>
    </edge>
    <edge id=":antrim_60" function="internal">
        <lane id=":antrim_60_0" index="0" speed="5.84" length="14.96" shape="2259.65,3451.75 2263.10,3456.12 2264.45,3457.42 2263.72,3455.65 2260.88,3450.81"/>
    </edge>
    <edge id=":antrim_61" function="internal">
        <lane id=":antrim_61_0" index="0" speed="9.08" length="36.94" shape="2259.65,3451.75 2267.82,3461.44 2271.71,3463.44 2271.32,3457.74 2266.66,3444.34"/>
    </edge>
    <edge id=":antrim_62" function="internal">
        <lane id=":antrim_62_0" index="0" speed="10.00" length="44.75" shape="2259.65,3451.75 2269.10,3462.30 2274.39,3463.68 2275.51,3455.88 2272.48,3438.90"/>
    </edge>
    <edge id=":antrim_63" function="internal">
        <lane id=":antrim_63_0" index="0" speed="10.00" length="46.79" shape="2259.65,3451.75 2269.53,3462.56 2275.50,3463.92 2277.55,3455.82 2275.69,3438.25"/>
    </edge>
    <edge id=":antrim_64" function="internal">
        <lane id=":antrim_64_0" index="0" speed="10.00" length="47.46" shape="2259.65,3451.75 2265.41,3461.21 2272.64,3475.23 2278.41,3488.19 2279.78,3494.46"/>
    </edge>
    <edge id=":antrim_65" function="internal">
        <lane id=":antrim_65_0" index="0" speed="8.90" length="31.54" shape="2259.65,3451.75 2262.40,3459.44 2262.57,3469.24 2260.16,3477.12 2255.20,3479.07"/>
    </edge>
    <edge id=":antrim_66" function="internal">
        <lane id=":antrim_66_0" index="0" speed="8.20" length="27.78" shape="2259.65,3451.75 2262.26,3458.72 2262.69,3467.53 2260.86,3474.44 2256.69,3475.74"/>
    </edge>
    <edge id=":antrim_67" function="internal">
        <lane id=":antrim_67_0" index="0" speed="6.87" length="20.39" shape="2259.65,3451.75 2259.20,3455.10 2254.42,3457.69 2248.12,3458.73 2243.10,3457.45"/>
    </edge>
    <edge id=":antrim_68" function="internal">
        <lane id=":antrim_68_0" index="0" speed="6.16" length="16.80" shape="2259.65,3451.75 2260.15,3454.75 2256.86,3455.71 2251.91,3454.75 2247.41,3451.98"/>
    </edge>
    <edge id=":antrim_69" function="internal">
        <lane id=":antrim_69_0" index="0" speed="3.65" length="4.67" shape="2259.65,3451.75 2259.77,3453.19 2259.38,3453.99 2258.51,3454.17 2257.14,3453.73"/>
    </edge>
    <edge id=":antrim_70" function="internal">
        <lane id=":antrim_70_0" index="0" speed="6.66" length="20.05" shape="2258.92,3452.31 2263.67,3458.04 2265.58,3459.70 2264.65,3457.29 2260.88,3450.81"/>
    </edge>
    <edge id=":antrim_71" function="internal">
        <lane id=":antrim_71_0" index="0" speed="9.23" length="37.96" shape="2258.92,3452.31 2267.52,3462.03 2271.68,3463.95 2271.39,3458.05 2266.66,3444.34"/>
    </edge>
    <edge id=":antrim_72" function="internal">
        <lane id=":antrim_72_0" index="0" speed="10.00" length="45.43" shape="2258.92,3452.31 2268.72,3462.75 2274.24,3463.99 2275.50,3456.04 2272.48,3438.90"/>
    </edge>
    <edge id=":antrim_73" function="internal">
        <lane id=":antrim_73_0" index="0" speed="10.00" length="47.42" shape="2258.92,3452.31 2269.14,3462.98 2275.34,3464.19 2277.52,3455.95 2275.69,3438.25"/>
    </edge>
    <edge id=":antrim_74" function="internal">
        <lane id=":antrim_74_0" index="0" speed="10.00" length="49.36" shape="2258.92,3452.31 2270.04,3466.94 2278.14,3479.50 2281.83,3488.99 2279.78,3494.46"/>
    </edge>
    <edge id=":antrim_75" function="internal">
        <lane id=":antrim_75_0" index="0" speed="8.78" length="30.96" shape="2258.92,3452.31 2261.84,3459.87 2262.25,3469.48 2260.07,3477.19 2255.20,3479.07"/>
    </edge>
    <edge id=":antrim_76" function="internal">
        <lane id=":antrim_76_0" index="0" speed="8.06" length="27.05" shape="2258.92,3452.31 2261.61,3459.06 2262.25,3467.67 2260.66,3474.45 2256.69,3475.74"/>
    </edge>
    <edge id=":antrim_77" function="internal">
        <lane id=":antrim_77_0" index="0" speed="6.68" length="19.36" shape="2258.92,3452.31 2258.52,3455.42 2253.94,3457.79 2247.90,3458.70 2243.10,3457.45"/>
    </edge>
    <edge id=":antrim_78" function="internal">
        <lane id=":antrim_78_0" index="0" speed="5.53" length="13.21" shape="2258.92,3452.31 2258.51,3453.91 2255.07,3454.30 2250.68,3453.61 2247.41,3451.98"/>
    </edge>
    <edge id=":antrim_79" function="internal">
        <lane id=":antrim_79_0" index="0" speed="10.00" length="112.66" shape="2258.92,3452.31 2232.55,3419.32 2223.47,3408.55 2231.66,3420.02 2257.14,3453.73"/>
    </edge>
    <edge id=":antrim_80" function="internal">
        <lane id=":antrim_80_0" index="0" speed="7.97" length="29.27" shape="2248.47,3450.63 2257.88,3459.37 2262.47,3462.80 2262.22,3460.92 2257.14,3453.73"/>
    </edge>
    <edge id=":antrim_81" function="internal">
        <lane id=":antrim_81_0" index="0" speed="9.25" length="38.73" shape="2248.47,3450.63 2260.40,3461.39 2266.44,3465.00 2266.60,3461.47 2260.88,3450.81"/>
    </edge>
    <edge id=":antrim_82" function="internal">
        <lane id=":antrim_82_0" index="0" speed="10.00" length="47.67" shape="2248.47,3450.63 2262.11,3462.28 2269.69,3465.12 2271.21,3459.14 2266.66,3444.34"/>
    </edge>
    <edge id=":antrim_83" function="internal">
        <lane id=":antrim_83_0" index="0" speed="10.00" length="54.08" shape="2248.47,3450.63 2262.99,3462.44 2271.83,3464.42 2275.00,3456.57 2272.48,3438.90"/>
    </edge>
    <edge id=":antrim_84" function="internal">
        <lane id=":antrim_84_0" index="0" speed="10.00" length="55.98" shape="2248.47,3450.63 2263.35,3462.55 2272.84,3464.46 2276.96,3456.36 2275.69,3438.25"/>
    </edge>
    <edge id=":antrim_85" function="internal">
        <lane id=":antrim_85_0" index="0" speed="10.00" length="56.21" shape="2248.47,3450.63 2263.49,3465.64 2274.97,3478.73 2281.03,3488.73 2279.78,3494.46"/>
    </edge>
    <edge id=":antrim_86" function="internal">
        <lane id=":antrim_86_0" index="0" speed="8.76" length="32.53" shape="2248.47,3450.63 2253.39,3458.12 2257.36,3468.34 2258.56,3476.82 2255.20,3479.07"/>
    </edge>
    <edge id=":antrim_87" function="internal">
        <lane id=":antrim_87_0" index="0" speed="8.92" length="35.35" shape="2248.47,3450.63 2256.05,3459.79 2261.44,3469.52 2262.39,3476.07 2256.69,3475.74"/>
    </edge>
    <edge id=":antrim_88" function="internal">
        <lane id=":antrim_88_0" index="0" speed="5.35" length="12.22" shape="2248.47,3450.63 2249.63,3453.53 2248.51,3456.41 2246.03,3458.11 2243.10,3457.45"/>
    </edge>
    <edge id=":antrim_89" function="internal">
        <lane id=":antrim_89_0" index="0" speed="3.04" length="2.50" shape="2248.47,3450.63 2248.71,3451.37 2248.61,3451.84 2248.18,3452.04 2247.41,3451.98"/>
    </edge>
    <edge id=":antrim_90" function="internal">
        <lane id=":antrim_90_0" index="0" speed="7.91" length="29.10" shape="2245.08,3454.94 2253.71,3461.39 2256.97,3463.05 2254.87,3459.91 2247.41,3451.98"/>
    </edge>
    <edge id=":antrim_91" function="internal">
        <lane id=":antrim_91_0" index="0" speed="9.21" length="38.34" shape="2245.08,3454.94 2257.88,3464.29 2264.15,3467.20 2263.91,3463.68 2257.14,3453.73"/>
    </edge>
    <edge id=":antrim_92" function="internal">
        <lane id=":antrim_92_0" index="0" speed="9.96" length="43.42" shape="2245.08,3454.94 2259.19,3464.95 2266.52,3467.60 2267.09,3462.88 2260.88,3450.81"/>
    </edge>
    <edge id=":antrim_93" function="internal">
        <lane id=":antrim_93_0" index="0" speed="10.00" length="50.80" shape="2245.08,3454.94 2260.40,3465.22 2269.11,3466.88 2271.20,3459.92 2266.66,3444.34"/>
    </edge>
    <edge id=":antrim_94" function="internal">
        <lane id=":antrim_94_0" index="0" speed="10.00" length="56.97" shape="2245.08,3454.94 2261.16,3465.18 2271.09,3465.92 2274.86,3457.16 2272.48,3438.90"/>
    </edge>
    <edge id=":antrim_95" function="internal">
        <lane id=":antrim_95_0" index="0" speed="10.00" length="58.80" shape="2245.08,3454.94 2261.48,3465.24 2272.05,3465.89 2276.79,3456.89 2275.69,3438.25"/>
    </edge>
    <edge id=":antrim_96" function="internal">
        <lane id=":antrim_96_0" index="0" speed="10.00" length="55.13" shape="2245.08,3454.94 2261.27,3468.09 2273.89,3479.81 2280.78,3488.97 2279.78,3494.46"/>
    </edge>
    <edge id=":antrim_97" function="internal">
        <lane id=":antrim_97_0" index="0" speed="8.90" length="35.06" shape="2245.08,3454.94 2253.40,3463.21 2259.54,3472.29 2260.97,3478.73 2255.20,3479.07"/>
    </edge>
    <edge id=":antrim_98" function="internal">
        <lane id=":antrim_98_0" index="0" speed="7.65" length="26.50" shape="2245.08,3454.94 2250.52,3460.76 2255.87,3468.53 2258.73,3474.71 2256.69,3475.74"/>
    </edge>
    <edge id=":antrim_99" function="internal">
        <lane id=":antrim_99_0" index="0" speed="3.65" length="4.67" shape="2245.08,3454.94 2245.53,3456.31 2245.34,3457.18 2244.54,3457.56 2243.10,3457.45"/>
    </edge>
    <edge id=":athlone_0" function="internal">
        <lane id=":athlone_0_0" index="0" speed="3.04" length="2.32" shape="1254.90,1971.28 1254.98,1972.13 1255.10,1972.41 1255.26,1972.15 1255.47,1971.33"/>
    </edge>
    <edge id=":athlone_1" function="internal">
        <lane id=":athlone_1_0" index="0" speed="6.36" length="11.35" shape="1254.90,1971.28 1254.27,1968.13 1252.77,1966.42 1250.39,1966.14 1247.13,1967.29"/>
    </edge>
    <edge id=":athlone_2" function="internal">
        <lane id=":athlone_2_0" index="0" speed="10.00" length="23.29" shape="1254.90,1971.28 1255.53,1966.33 1257.37,1959.98 1259.78,1953.80 1262.16,1949.35"/>
    </edge>
    <edge id=":athlone_3" function="internal">
        <lane id=":athlone_3_0" index="0" speed="10.00" length="22.18" shape="1254.90,1971.28 1255.54,1966.02 1258.01,1961.76 1262.31,1958.49 1268.45,1956.21"/>
    </edge>
    <edge id=":athlone_4" function="internal">
        <lane id=":athlone_4_0" index="0" speed="7.97" length="17.64" shape="1254.90,1971.28 1255.34,1966.04 1257.26,1962.77 1260.66,1961.45 1265.55,1962.10"/>
    </edge>
    <edge id=":athlone_5" function="internal">
        <lane id=":athlone_5_0" index="0" speed="4.87" length="7.40" shape="1259.82,1969.92 1258.40,1968.22 1257.20,1967.89 1256.23,1968.93 1255.47,1971.33"/>
    </edge>
    <edge id=":athlone_6" function="internal">
        <lane id=":athlone_6_0" index="0" speed="8.38" length="14.45" shape="1259.82,1969.92 1257.38,1967.19 1254.45,1965.84 1251.04,1965.88 1247.13,1967.29"/>
    </edge>
    <edge id=":athlone_7" function="internal">
        <lane id=":athlone_7_0" index="0" speed="10.00" length="22.02" shape="1259.82,1969.92 1257.81,1965.28 1257.53,1960.30 1258.98,1954.99 1262.16,1949.35"/>
    </edge>
    <edge id=":athlone_8" function="internal">
        <lane id=":athlone_8_0" index="0" speed="8.48" length="20.04" shape="1259.82,1969.92 1257.97,1965.34 1258.79,1961.53 1262.29,1958.49 1268.45,1956.21"/>
    </edge>
    <edge id=":athlone_9" function="internal">
        <lane id=":athlone_9_0" index="0" speed="5.72" length="11.14" shape="1259.82,1969.92 1259.54,1967.42 1260.87,1964.65 1263.10,1962.56 1265.55,1962.10"/>
    </edge>
    <edge id=":athlone_10" function="internal">
        <lane id=":athlone_10_0" index="0" speed="5.45" length="10.16" shape="1265.31,1951.55 1263.55,1954.38 1263.49,1956.10 1265.12,1956.71 1268.45,1956.21"/>
    </edge>
    <edge id=":athlone_11" function="internal">
        <lane id=":athlone_11_0" index="0" speed="6.86" length="13.07" shape="1265.31,1951.55 1262.85,1955.42 1262.07,1958.47 1262.97,1960.69 1265.55,1962.10"/>
    </edge>
    <edge id=":athlone_12" function="internal">
        <lane id=":athlone_12_0" index="0" speed="10.00" length="22.18" shape="1265.31,1951.55 1262.63,1955.62 1259.63,1961.09 1257.01,1966.73 1255.47,1971.33"/>
    </edge>
    <edge id=":athlone_13" function="internal">
        <lane id=":athlone_13_0" index="0" speed="10.00" length="24.13" shape="1265.31,1951.55 1261.81,1955.36 1256.75,1960.06 1251.42,1964.44 1247.13,1967.29"/>
    </edge>
    <edge id=":athlone_14" function="internal">
        <lane id=":athlone_14_0" index="0" speed="3.91" length="5.62" shape="1265.31,1951.55 1263.70,1952.18 1262.63,1952.03 1262.12,1951.08 1262.16,1949.35"/>
    </edge>
    <edge id=":belfast_0" function="internal">
        <lane id=":belfast_0_0" index="0" speed="6.75" length="20.31" shape="2489.29,3330.71 2490.71,3336.80 2491.62,3344.14 2491.57,3349.38 2490.16,3349.17"/>
    </edge>
    <edge id=":belfast_1" function="internal">
        <lane id=":belfast_1_0" index="0" speed="6.65" length="19.94" shape="2489.29,3330.71 2490.74,3336.74 2491.75,3343.99 2491.87,3349.16 2490.65,3348.90"/>
    </edge>
    <edge id=":belfast_2" function="internal">
        <lane id=":belfast_2_0" index="0" speed="6.48" length="17.55" shape="2489.29,3330.71 2492.25,3338.81 2494.36,3343.99 2495.59,3346.23 2495.96,3345.53"/>
    </edge>
    <edge id=":belfast_3" function="internal">
        <lane id=":belfast_3_0" index="0" speed="10.00" length="48.40" shape="2489.29,3330.71 2492.59,3344.64 2491.85,3356.40 2487.06,3366.01 2478.22,3373.47"/>
    </edge>
    <edge id=":belfast_4" function="internal">
        <lane id=":belfast_4_0" index="0" speed="10.00" length="46.64" shape="2489.29,3330.71 2492.52,3344.50 2491.47,3355.65 2486.15,3364.15 2476.55,3370.02"/>
    </edge>
    <edge id=":belfast_5" function="internal">
        <lane id=":belfast_5_0" index="0" speed="7.76" length="24.15" shape="2489.29,3330.71 2490.63,3337.54 2490.86,3345.65 2489.64,3351.60 2486.65,3351.96"/>
    </edge>
    <edge id=":belfast_6" function="internal">
        <lane id=":belfast_6_0" index="0" speed="6.91" length="19.75" shape="2489.29,3330.71 2489.30,3335.99 2486.34,3339.84 2481.90,3341.15 2477.48,3338.83"/>
    </edge>
    <edge id=":belfast_7" function="internal">
        <lane id=":belfast_7_0" index="0" speed="3.47" length="3.98" shape="2489.29,3330.71 2489.01,3331.91 2488.49,3332.47 2487.74,3332.39 2486.74,3331.67"/>
    </edge>
    <edge id=":belfast_8" function="internal">
        <lane id=":belfast_8_0" index="0" speed="6.70" length="18.60" shape="2488.02,3331.19 2491.56,3339.57 2494.06,3344.75 2495.53,3346.74 2495.96,3345.53"/>
    </edge>
    <edge id=":belfast_9" function="internal">
        <lane id=":belfast_9_0" index="0" speed="10.00" length="47.93" shape="2488.02,3331.19 2491.90,3344.89 2491.56,3356.50 2487.00,3366.03 2478.22,3373.47"/>
    </edge>
    <edge id=":belfast_10" function="internal">
        <lane id=":belfast_10_0" index="0" speed="10.00" length="42.00" shape="2488.02,3331.19 2488.73,3340.31 2486.45,3352.57 2482.09,3363.84 2476.55,3370.02"/>
    </edge>
    <edge id=":belfast_11" function="internal">
        <lane id=":belfast_11_0" index="0" speed="7.59" length="23.45" shape="2488.02,3331.19 2489.64,3337.80 2490.25,3345.73 2489.41,3351.58 2486.65,3351.96"/>
    </edge>
    <edge id=":belfast_12" function="internal">
        <lane id=":belfast_12_0" index="0" speed="6.11" length="15.27" shape="2488.02,3331.19 2487.47,3334.54 2484.43,3337.75 2480.56,3339.59 2477.48,3338.83"/>
    </edge>
    <edge id=":belfast_13" function="internal">
        <lane id=":belfast_13_0" index="0" speed="6.62" length="19.80" shape="2488.02,3331.19 2489.73,3337.10 2491.04,3344.26 2491.38,3349.38 2490.16,3349.17"/>
    </edge>
    <edge id=":belfast_14" function="internal">
        <lane id=":belfast_14_0" index="0" speed="7.01" length="22.94" shape="2488.02,3331.19 2484.71,3323.27 2483.40,3320.71 2484.07,3323.51 2486.74,3331.67"/>
    </edge>
    <edge id=":belfast_15" function="internal">
        <lane id=":belfast_15_0" index="0" speed="7.47" length="26.15" shape="2488.02,3331.19 2495.32,3334.63 2498.19,3338.73 2496.64,3343.49 2490.65,3348.90"/>
    </edge>
    <edge id=":belfast_16" function="internal">
        <lane id=":belfast_16_0" index="0" speed="10.00" length="53.47" shape="2484.69,3332.74 2476.90,3319.05 2475.29,3317.18 2479.88,3327.13 2490.65,3348.90"/>
    </edge>
    <edge id=":belfast_17" function="internal">