<?xml version="1.0" encoding="UTF-8"?>

<!-- generated on 2024-11-14 14:05:08 by Eclipse SUMO netconvert Version 1.18.0
<configuration xmlns:xsi="http://www.w3.org/2001/XMLSchema-instance" xsi:noNamespaceSchemaLocation="http://sumo.dlr.de/xsd/netconvertConfiguration.xsd">

    <input>
        <node-files value="config/workspace/nod.xml"/>
        <edge-files value="config/workspace/edg.xml"/>
    </input>

    <output>
        <output-file value="config/workspace/current_network.net.xml"/>
    </output>

</configuration>
-->

<net version="1.16" junctionCornerDetail="5" limitTurnSpeed="5.50" xmlns:xsi="http://www.w3.org/2001/XMLSchema-instance" xsi:noNamespaceSchemaLocation="http://sumo.dlr.de/xsd/net_file.xsd">

    <location netOffset="-682.00,4368.00" convBoundary="0.00,0.00,2498.00,3881.00" origBoundary="682.00,-4368.00,3180.00,-487.00" projParameter="!"/>

    <edge id=":antrim_0" function="internal">
        <lane id=":antrim_0_0" index="0" speed="5.65" length="9.74" shape="2288.54,3478.33 2288.63,3481.45 2289.57,3483.14 2291.35,3483.42 2293.99,3482.27"/>
    </edge>
    <edge id=":antrim_1" function="internal">
        <lane id=":antrim_1_0" index="0" speed="7.23" length="18.16" shape="2288.54,3478.33 2286.36,3480.76 2281.76,3480.62 2276.60,3478.72 2272.74,3475.88"/>
    </edge>
    <edge id=":antrim_2" function="internal">
        <lane id=":antrim_2_0" index="0" speed="7.09" length="17.70" shape="2288.54,3478.33 2286.41,3480.64 2281.93,3480.36 2276.93,3478.35 2273.25,3475.46"/>
    </edge>
    <edge id=":antrim_3" function="internal">
        <lane id=":antrim_3_0" index="0" speed="7.58" length="20.48" shape="2288.54,3478.33 2286.59,3482.47 2282.62,3482.67 2277.79,3479.98 2273.25,3475.46"/>
    </edge>
    <edge id=":antrim_4" function="internal">
        <lane id=":antrim_4_0" index="0" speed="9.06" length="20.57" shape="2280.00,3470.65 2283.41,3477.38 2286.87,3481.56 2290.40,3483.19 2293.99,3482.27"/>
    </edge>
    <edge id=":antrim_5" function="internal">
        <lane id=":antrim_5_0" index="0" speed="5.18" length="10.50" shape="2280.00,3470.65 2279.62,3472.94 2277.53,3475.15 2274.85,3476.41 2272.74,3475.88"/>
    </edge>
    <edge id=":antrim_6" function="internal">
        <lane id=":antrim_6_0" index="0" speed="4.99" length="9.74" shape="2280.00,3470.65 2279.64,3472.78 2277.67,3474.82 2275.18,3475.98 2273.25,3475.46"/>
    </edge>
    <edge id=":antrim_7" function="internal">
        <lane id=":antrim_7_0" index="0" speed="5.47" length="12.11" shape="2280.00,3470.65 2280.11,3474.38 2279.03,3476.43 2276.74,3476.79 2273.25,3475.46"/>
    </edge>
    <edge id=":antrim_8" function="internal">
        <lane id=":antrim_8_0" index="0" speed="10.00" length="21.81" shape="2276.55,3472.70 2281.35,3478.61 2285.86,3482.17 2290.07,3483.39 2293.99,3482.27"/>
    </edge>
    <edge id=":antrim_9" function="internal">
        <lane id=":antrim_9_0" index="0" speed="4.27" length="6.99" shape="2276.55,3472.70 2276.87,3474.45 2275.91,3475.93 2274.31,3476.59 2272.74,3475.88"/>
    </edge>
    <edge id=":antrim_10" function="internal">
        <lane id=":antrim_10_0" index="0" speed="3.79" length="5.10" shape="2276.55,3472.70 2276.51,3473.79 2275.54,3474.94 2274.25,3475.67 2273.25,3475.46"/>
    </edge>
    <edge id=":antrim_11" function="internal">
        <lane id=":antrim_11_0" index="0" speed="4.08" length="6.28" shape="2276.55,3472.70 2276.76,3474.63 2276.28,3475.73 2275.11,3476.01 2273.25,3475.46"/>
    </edge>
    <edge id=":antrim_12" function="internal">
        <lane id=":antrim_12_0" index="0" speed="8.49" length="18.31" shape="2278.43,3491.55 2279.99,3489.46 2279.56,3486.15 2277.15,3481.62 2272.74,3475.88"/>
    </edge>
    <edge id=":antrim_13" function="internal">
        <lane id=":antrim_13_0" index="0" speed="8.63" length="18.51" shape="2278.43,3491.55 2280.04,3489.42 2279.72,3486.02 2277.45,3481.37 2273.25,3475.46"/>
    </edge>
    <edge id=":antrim_14" function="internal">
        <lane id=":antrim_14_0" index="0" speed="8.63" length="18.51" shape="2278.43,3491.55 2280.04,3489.42 2279.72,3486.02 2277.45,3481.37 2273.25,3475.46"/>
    </edge>
    <edge id=":antrim_15" function="internal">
        <lane id=":antrim_15_0" index="0" speed="10.00" length="18.12" shape="2278.43,3491.55 2293.99,3482.27"/>
    </edge>
    <edge id=":athlone_0" function="internal">
        <lane id=":athlone_0_0" index="0" speed="4.61" length="8.52" shape="1261.44,1986.46 1262.32,1989.45 1262.74,1990.37 1262.68,1989.22 1262.15,1986.01"/>
    </edge>
    <edge id=":athlone_1" function="internal">
        <lane id=":athlone_1_0" index="0" speed="8.21" length="22.22" shape="1261.44,1986.46 1258.48,1977.18 1255.73,1971.36 1253.19,1968.98 1250.87,1970.05"/>
    </edge>
    <edge id=":athlone_2" function="internal">
        <lane id=":athlone_2_0" index="0" speed="10.00" length="39.05" shape="1261.44,1986.46 1251.59,1948.67"/>
    </edge>
    <edge id=":athlone_3" function="internal">
        <lane id=":athlone_3_0" index="0" speed="10.00" length="34.09" shape="1261.44,1986.46 1258.65,1974.71 1257.48,1965.25 1257.93,1958.08 1259.99,1953.21"/>
    </edge>
    <edge id=":athlone_4" function="internal">
        <lane id=":athlone_4_0" index="0" speed="9.61" length="29.81" shape="1261.44,1986.46 1259.16,1976.69 1258.50,1968.29 1260.46,1962.91 1266.04,1962.24"/>
    </edge>
    <edge id=":athlone_5" function="internal">
        <lane id=":athlone_5_0" index="0" speed="7.04" length="19.94" shape="1261.44,1986.46 1261.66,1981.05 1264.66,1977.21 1269.08,1975.97 1273.54,1978.35"/>
    </edge>
    <edge id=":athlone_6" function="internal">
        <lane id=":athlone_6_0" index="0" speed="6.02" length="14.93" shape="1261.44,1986.46 1261.72,1982.42 1264.16,1979.51 1267.50,1978.62 1270.50,1980.65"/>
    </edge>
    <edge id=":athlone_7" function="internal">
        <lane id=":athlone_7_0" index="0" speed="6.41" length="16.91" shape="1266.89,1982.94 1263.71,1978.17 1261.86,1977.09 1261.34,1979.70 1262.15,1986.01"/>
    </edge>
    <edge id=":athlone_8" function="internal">
        <lane id=":athlone_8_0" index="0" speed="8.96" length="23.21" shape="1266.89,1982.94 1261.73,1974.97 1257.34,1970.17 1253.72,1968.53 1250.87,1970.05"/>
    </edge>
    <edge id=":athlone_9" function="internal">
        <lane id=":athlone_9_0" index="0" speed="10.00" length="37.56" shape="1266.89,1982.94 1263.59,1976.45 1258.71,1966.02 1254.09,1955.48 1251.59,1948.67"/>
    </edge>
    <edge id=":athlone_10" function="internal">
        <lane id=":athlone_10_0" index="0" speed="10.00" length="31.85" shape="1266.89,1982.94 1261.65,1972.81 1258.76,1964.47 1258.21,1957.94 1259.99,1953.21"/>
    </edge>
    <edge id=":athlone_11" function="internal">
        <lane id=":athlone_11_0" index="0" speed="8.65" length="27.08" shape="1266.89,1982.94 1262.76,1975.06 1260.15,1967.66 1260.70,1962.72 1266.04,1962.24"/>
    </edge>
    <edge id=":athlone_12" function="internal">
        <lane id=":athlone_12_0" index="0" speed="5.25" length="11.31" shape="1266.89,1982.94 1266.56,1980.12 1268.25,1977.93 1270.93,1977.10 1273.54,1978.35"/>
    </edge>
    <edge id=":athlone_13" function="internal">
        <lane id=":athlone_13_0" index="0" speed="4.06" length="6.25" shape="1266.89,1982.94 1266.93,1981.02 1267.55,1979.99 1268.74,1979.87 1270.50,1980.65"/>
    </edge>
    <edge id=":athlone_14" function="internal">
        <lane id=":athlone_14_0" index="0" speed="6.25" length="10.31" shape="1262.19,1954.90 1261.08,1957.30 1261.35,1959.33 1263.01,1960.97 1266.04,1962.24"/>
    </edge>
    <edge id=":athlone_15" function="internal">
        <lane id=":athlone_15_0" index="0" speed="10.00" length="27.26" shape="1262.19,1954.90 1261.34,1958.61 1262.95,1963.75 1267.02,1970.33 1273.54,1978.35"/>
    </edge>
    <edge id=":athlone_16" function="internal">
        <lane id=":athlone_16_0" index="0" speed="10.00" length="28.05" shape="1262.19,1954.90 1261.11,1958.81 1262.13,1964.41 1265.26,1971.68 1270.50,1980.65"/>
    </edge>
    <edge id=":athlone_17" function="internal">
        <lane id=":athlone_17_0" index="0" speed="10.00" length="31.59" shape="1262.19,1954.90 1260.50,1959.27 1259.93,1965.91 1260.48,1974.82 1262.15,1986.01"/>
    </edge>
    <edge id=":athlone_18" function="internal">
        <lane id=":athlone_18_0" index="0" speed="10.00" length="18.91" shape="1262.19,1954.90 1250.87,1970.05"/>
    </edge>
    <edge id=":athlone_19" function="internal">
        <lane id=":athlone_19_0" index="0" speed="7.32" length="18.36" shape="1262.19,1954.90 1258.92,1958.26 1256.06,1958.34 1253.62,1955.15 1251.59,1948.67"/>
    </edge>
    <edge id=":athlone_20" function="internal">
        <lane id=":athlone_20_0" index="0" speed="3.50" length="4.05" shape="1262.19,1954.90 1261.01,1955.30 1260.24,1955.15 1259.91,1954.45 1259.99,1953.21"/>
    </edge>
    <edge id=":athlone_21" function="internal">
        <lane id=":athlone_21_0" index="0" speed="5.70" length="9.21" shape="1246.62,1953.39 1249.34,1953.77 1251.08,1953.11 1251.83,1951.41 1251.59,1948.67"/>
    </edge>
    <edge id=":athlone_22" function="internal">
        <lane id=":athlone_22_0" index="0" speed="9.34" length="13.93" shape="1246.62,1953.39 1251.54,1954.52 1255.40,1954.87 1258.22,1954.43 1259.99,1953.21"/>
    </edge>
    <edge id=":athlone_23" function="internal">
        <lane id=":athlone_23_0" index="0" speed="10.00" length="21.39" shape="1246.62,1953.39 1253.04,1955.71 1258.14,1958.30 1262.34,1960.65 1266.04,1962.24"/>
    </edge>
    <edge id=":athlone_24" function="internal">
        <lane id=":athlone_24_0" index="0" speed="10.00" length="35.64" shape="1245.76,1956.47 1253.69,1960.50 1262.02,1967.02 1269.15,1973.73 1273.54,1978.35"/>
    </edge>
    <edge id=":athlone_25" function="internal">
        <lane id=":athlone_25_0" index="0" speed="10.00" length="35.04" shape="1245.76,1956.47 1253.31,1960.79 1260.73,1967.99 1266.85,1975.47 1270.50,1980.65"/>
    </edge>
    <edge id=":athlone_26" function="internal">
        <lane id=":athlone_26_0" index="0" speed="10.00" length="35.26" shape="1245.76,1956.47 1251.15,1959.54 1255.67,1965.48 1259.34,1974.31 1262.15,1986.01"/>
    </edge>
    <edge id=":athlone_27" function="internal">
        <lane id=":athlone_27_0" index="0" speed="8.04" length="18.68" shape="1245.76,1956.47 1250.95,1958.68 1253.53,1961.68 1253.50,1965.47 1250.87,1970.05"/>
    </edge>
    <edge id=":athlone_28" function="internal">
        <lane id=":athlone_28_0" index="0" speed="10.00" length="20.32" shape="1248.36,1968.07 1250.78,1964.06 1252.12,1959.49 1252.39,1954.36 1251.59,1948.67"/>
    </edge>
    <edge id=":athlone_29" function="internal">
        <lane id=":athlone_29_0" index="0" speed="10.00" length="18.87" shape="1248.36,1968.07 1259.99,1953.21"/>
    </edge>
    <edge id=":athlone_30" function="internal">
        <lane id=":athlone_30_0" index="0" speed="10.00" length="19.86" shape="1248.36,1968.07 1252.11,1964.36 1256.31,1962.16 1260.95,1961.45 1266.04,1962.24"/>
    </edge>
    <edge id=":athlone_31" function="internal">
        <lane id=":athlone_31_0" index="0" speed="10.00" length="31.05" shape="1248.36,1968.07 1253.54,1964.72 1259.55,1965.98 1266.26,1970.86 1273.54,1978.35"/>
    </edge>
    <edge id=":athlone_32" function="internal">
        <lane id=":athlone_32_0" index="0" speed="10.00" length="29.91" shape="1248.36,1968.07 1253.48,1964.91 1259.00,1966.82 1264.73,1972.51 1270.50,1980.65"/>
    </edge>
    <edge id=":athlone_33" function="internal">
        <lane id=":athlone_33_0" index="0" speed="9.06" length="28.71" shape="1248.36,1968.07 1253.22,1965.32 1257.10,1969.01 1260.05,1976.72 1262.15,1986.01"/>
    </edge>
    <edge id=":athlone_34" function="internal">
        <lane id=":athlone_34_0" index="0" speed="3.65" length="4.67" shape="1248.36,1968.07 1249.73,1967.62 1250.61,1967.81 1250.99,1968.62 1250.87,1970.05"/>
    </edge>
    <edge id=":belfast_0" function="internal">
        <lane id=":belfast_0_0" index="0" speed="6.45" length="18.35" shape="2477.29,3328.90 2481.45,3334.28 2483.26,3335.81 2482.73,3333.50 2479.85,3327.34"/>
    </edge>
    <edge id=":belfast_1" function="internal">
        <lane id=":belfast_1_0" index="0" speed="9.65" length="38.13" shape="2477.29,3328.90 2485.10,3337.68 2490.08,3338.77 2492.24,3332.16 2491.58,3317.85"/>
    </edge>
    <edge id=":belfast_2" function="internal">
        <lane id=":belfast_2_0" index="0" speed="10.00" length="40.23" shape="2477.29,3328.90 2485.51,3337.93 2491.22,3339.06 2494.42,3332.28 2495.10,3317.59"/>
    </edge>
    <edge id=":belfast_3" function="internal">
        <lane id=":belfast_3_0" index="0" speed="5.99" length="15.28" shape="2477.29,3328.90 2478.21,3332.73 2476.41,3336.07 2473.10,3337.74 2469.47,3336.53"/>
    </edge>
    <edge id=":belfast_4" function="internal">
        <lane id=":belfast_4_0" index="0" speed="7.68" length="25.97" shape="2474.52,3331.14 2481.08,3337.92 2484.15,3339.54 2483.74,3336.02 2479.85,3327.34"/>
    </edge>
    <edge id=":belfast_5" function="internal">
        <lane id=":belfast_5_0" index="0" speed="10.00" length="40.55" shape="2474.52,3331.14 2483.58,3339.32 2489.44,3339.82 2492.11,3332.67 2491.58,3317.85"/>
    </edge>
    <edge id=":belfast_6" function="internal">
        <lane id=":belfast_6_0" index="0" speed="10.00" length="42.52" shape="2474.52,3331.14 2483.96,3339.48 2490.54,3340.00 2494.25,3332.71 2495.10,3317.59"/>
    </edge>
    <edge id=":belfast_7" function="internal">
        <lane id=":belfast_7_0" index="0" speed="5.08" length="10.79" shape="2474.52,3331.14 2475.28,3334.39 2474.69,3336.36 2472.75,3337.08 2469.47,3336.53"/>
    </edge>
    <edge id=":belfast_8" function="internal">
        <lane id=":belfast_8_0" index="0" speed="10.00" length="34.86" shape="2490.07,3362.95 2490.76,3360.10 2487.55,3354.75 2480.45,3346.89 2469.47,3336.53"/>
    </edge>
    <edge id=":belfast_9" function="internal">
        <lane id=":belfast_9_0" index="0" speed="10.00" length="38.21" shape="2490.07,3362.95 2491.62,3359.39 2490.44,3352.27 2486.51,3341.59 2479.85,3327.34"/>
    </edge>
    <edge id=":belfast_10" function="internal">
        <lane id=":belfast_10_0" index="0" speed="10.00" length="45.89" shape="2490.07,3362.95 2492.50,3358.71 2493.56,3349.78 2493.25,3336.16 2491.58,3317.85"/>
    </edge>
    <edge id=":belfast_11" function="internal">
        <lane id=":belfast_11_0" index="0" speed="10.00" length="46.32" shape="2490.07,3362.95 2492.75,3358.68 2494.48,3349.69 2495.26,3336.00 2495.10,3317.59"/>
    </edge>
    <edge id=":bray_0" function="internal">
        <lane id=":bray_0_0" index="0" speed="4.22" length="6.74" shape="2445.02,1681.43 2445.15,1683.95 2445.32,1684.81 2445.54,1683.99 2445.81,1681.50"/>
    </edge>
    <edge id=":bray_1" function="internal">
        <lane id=":bray_1_0" index="0" speed="7.72" length="24.99" shape="2445.02,1681.43 2444.23,1677.74 2442.20,1678.96 2438.96,1685.10 2434.49,1696.14"/>
    </edge>
    <edge id=":bray_2" function="internal">
        <lane id=":bray_2_0" index="0" speed="9.43" length="36.78" shape="2445.02,1681.43 2443.69,1677.67 2440.10,1680.34 2434.26,1689.43 2426.17,1704.96"/>
    </edge>
    <edge id=":bray_3" function="internal">
        <lane id=":bray_3_0" index="0" speed="9.23" length="32.84" shape="2445.02,1681.43 2443.54,1676.41 2439.56,1676.94 2433.09,1683.04 2424.13,1694.69"/>
    </edge>
    <edge id=":bray_4" function="internal">
        <lane id=":bray_4_0" index="0" speed="8.96" length="25.10" shape="2445.02,1681.43 2443.77,1674.31 2440.56,1670.63 2435.39,1670.36 2428.25,1673.52"/>
    </edge>
    <edge id=":bray_5" function="internal">
        <lane id=":bray_5_0" index="0" speed="10.00" length="33.09" shape="2437.83,1650.39 2442.01,1656.09 2444.74,1663.18 2446.00,1671.65 2445.81,1681.50"/>
    </edge>
    <edge id=":bray_6" function="internal">
        <lane id=":bray_6_0" index="0" speed="10.00" length="47.68" shape="2437.83,1650.39 2441.38,1657.08 2442.01,1666.94 2439.71,1679.96 2434.49,1696.14"/>
    </edge>
    <edge id=":bray_7" function="internal">
        <lane id=":bray_7_0" index="0" speed="10.00" length="57.85" shape="2437.83,1650.39 2440.89,1657.66 2439.97,1669.18 2435.06,1684.95 2426.17,1704.96"/>
    </edge>
    <edge id=":bray_8" function="internal">
        <lane id=":bray_8_0" index="0" speed="10.00" length="49.06" shape="2437.83,1650.39 2440.82,1657.08 2439.53,1666.69 2433.97,1679.22 2424.13,1694.69"/>
    </edge>
    <edge id=":bray_9" function="internal">
        <lane id=":bray_9_0" index="0" speed="10.00" length="30.23" shape="2437.83,1650.39 2441.78,1656.84 2440.87,1662.69 2436.04,1668.17 2428.25,1673.52"/>
    </edge>
    <edge id=":bray_10" function="internal">
        <lane id=":bray_10_0" index="0" speed="10.00" length="32.86" shape="2437.40,1650.85 2441.77,1656.33 2444.63,1663.27 2445.98,1671.66 2445.81,1681.50"/>
    </edge>
    <edge id=":bray_11" function="internal">
        <lane id=":bray_11_0" index="0" speed="10.00" length="47.33" shape="2437.40,1650.85 2441.15,1657.32 2441.91,1667.03 2439.69,1679.97 2434.49,1696.14"/>
    </edge>
    <edge id=":bray_12" function="internal">
        <lane id=":bray_12_0" index="0" speed="10.00" length="57.46" shape="2437.40,1650.85 2440.66,1657.90 2439.87,1669.27 2435.04,1684.96 2426.17,1704.96"/>
    </edge>
    <edge id=":bray_13" function="internal">
        <lane id=":bray_13_0" index="0" speed="10.00" length="48.66" shape="2437.40,1650.85 2440.59,1657.31 2439.44,1666.77 2433.95,1679.23 2424.13,1694.69"/>
    </edge>
    <edge id=":bray_14" function="internal">
        <lane id=":bray_14_0" index="0" speed="9.85" length="26.80" shape="2437.40,1650.85 2439.33,1656.00 2437.56,1662.57 2433.42,1668.94 2428.25,1673.52"/>
    </edge>
    <edge id=":bray_15" function="internal">
        <lane id=":bray_15_0" index="0" speed="10.00" length="31.01" shape="2434.93,1654.69 2440.40,1658.35 2444.03,1664.03 2445.84,1671.75 2445.81,1681.50"/>
    </edge>
    <edge id=":bray_16" function="internal">
        <lane id=":bray_16_0" index="0" speed="10.00" length="44.62" shape="2434.93,1654.69 2439.82,1659.31 2441.38,1667.77 2439.60,1680.04 2434.49,1696.14"/>
    </edge>
    <edge id=":bray_17" function="internal">
        <lane id=":bray_17_0" index="0" speed="10.00" length="54.38" shape="2434.93,1654.69 2439.36,1659.89 2439.37,1670.00 2434.97,1685.02 2426.17,1704.96"/>
    </edge>
    <edge id=":bray_18" function="internal">
        <lane id=":bray_18_0" index="0" speed="10.00" length="42.16" shape="2434.93,1654.69 2435.80,1660.68 2433.09,1672.64 2428.60,1685.63 2424.13,1694.69"/>
    </edge>
    <edge id=":bray_19" function="internal">
        <lane id=":bray_19_0" index="0" speed="8.25" length="22.53" shape="2434.93,1654.69 2437.29,1658.22 2436.04,1663.77 2432.57,1669.49 2428.25,1673.52"/>
    </edge>
    <edge id=":bray_20" function="internal">
        <lane id=":bray_20_0" index="0" speed="7.96" length="27.00" shape="2419.71,1691.51 2427.57,1681.16 2431.62,1674.72 2431.84,1672.17 2428.25,1673.52"/>
    </edge>
    <edge id=":bray_21" function="internal">
        <lane id=":bray_21_0" index="0" speed="9.65" length="37.06" shape="2419.71,1691.51 2428.05,1682.64 2436.89,1676.14 2443.66,1674.83 2445.81,1681.50"/>
    </edge>
    <edge id=":bray_22" function="internal">
        <lane id=":bray_22_0" index="0" speed="7.09" length="21.44" shape="2419.71,1691.51 2424.70,1688.26 2430.24,1688.28 2434.21,1691.07 2434.49,1696.14"/>
    </edge>
    <edge id=":bray_23" function="internal">
        <lane id=":bray_23_0" index="0" speed="6.84" length="20.52" shape="2419.71,1691.51 2423.41,1689.83 2426.24,1693.01 2427.43,1698.81 2426.17,1704.96"/>
    </edge>
    <edge id=":bray_24" function="internal">
        <lane id=":bray_24_0" index="0" speed="4.46" length="7.96" shape="2419.71,1691.51 2422.00,1690.64 2423.51,1690.88 2424.22,1692.23 2424.13,1694.69"/>
    </edge>
    <edge id=":bray_25" function="internal">
        <lane id=":bray_25_0" index="0" speed="7.66" length="26.67" shape="2424.07,1703.93 2428.88,1693.13 2430.49,1687.99 2428.90,1688.51 2424.13,1694.69"/>
    </edge>
    <edge id=":bray_26" function="internal">
        <lane id=":bray_26_0" index="0" speed="9.89" length="38.85" shape="2424.07,1703.93 2431.18,1687.46 2434.24,1676.90 2433.27,1672.25 2428.25,1673.52"/>
    </edge>
    <edge id=":bray_27" function="internal">
        <lane id=":bray_27_0" index="0" speed="9.72" length="41.37" shape="2424.07,1703.93 2430.79,1691.37 2438.28,1680.34 2444.09,1675.51 2445.81,1681.50"/>
    </edge>
    <edge id=":bray_28" function="internal">
        <lane id=":bray_28_0" index="0" speed="6.22" length="17.44" shape="2424.07,1703.93 2427.35,1699.00 2431.39,1695.05 2434.37,1693.59 2434.49,1696.14"/>
    </edge>
    <edge id=":bray_29" function="internal">
        <lane id=":bray_29_0" index="0" speed="3.31" length="3.41" shape="2424.07,1703.93 2424.98,1703.40 2425.64,1703.40 2426.03,1703.92 2426.17,1704.96"/>
    </edge>
    <edge id=":carlow_0" function="internal">
        <lane id=":carlow_0_0" index="0" speed="6.32" length="13.46" shape="1889.98,1156.58 1887.94,1154.53 1886.08,1154.89 1884.38,1157.66 1882.86,1162.85"/>
    </edge>
    <edge id=":carlow_1" function="internal">
        <lane id=":carlow_1_0" index="0" speed="7.17" length="15.66" shape="1889.98,1156.58 1887.49,1154.11 1884.82,1154.09 1881.97,1156.52 1878.95,1161.39"/>
    </edge>
    <edge id=":carlow_2" function="internal">
        <lane id=":carlow_2_0" index="0" speed="7.30" length="15.96" shape="1889.98,1156.58 1887.43,1154.06 1884.65,1153.97 1881.65,1156.32 1878.42,1161.10"/>
    </edge>
    <edge id=":carlow_3" function="internal">
        <lane id=":carlow_3_0" index="0" speed="10.00" length="18.42" shape="1889.98,1156.58 1886.85,1152.51 1883.40,1149.39 1879.62,1147.24 1875.51,1146.05"/>
    </edge>
    <edge id=":carlow_4" function="internal">
        <lane id=":carlow_4_0" index="0" speed="3.65" length="4.67" shape="1889.98,1156.58 1890.00,1155.14 1890.45,1154.37 1891.34,1154.27 1892.67,1154.84"/>
    </edge>
    <edge id=":carlow_5" function="internal">
        <lane id=":carlow_5_0" index="0" speed="10.00" length="21.07" shape="1876.04,1142.89 1880.80,1144.26 1885.15,1146.70 1889.11,1150.23 1892.67,1154.84"/>
    </edge>
    <edge id=":carlow_6" function="internal">
        <lane id=":carlow_6_0" index="0" speed="10.00" length="23.86" shape="1876.04,1142.89 1880.55,1144.82 1883.19,1148.79 1883.96,1154.80 1882.86,1162.85"/>
    </edge>
    <edge id=":carlow_7" function="internal">
        <lane id=":carlow_7_0" index="0" speed="9.01" length="22.56" shape="1876.04,1142.89 1880.49,1144.76 1882.46,1148.46 1881.94,1154.01 1878.95,1161.39"/>
    </edge>
    <edge id=":carlow_8" function="internal">
        <lane id=":carlow_8_0" index="0" speed="8.88" length="22.37" shape="1876.04,1142.89 1880.49,1144.74 1882.36,1148.39 1881.67,1153.85 1878.42,1161.10"/>
    </edge>
    <edge id=":carlow_9" function="internal">
        <lane id=":carlow_9_0" index="0" speed="3.65" length="4.67" shape="1876.04,1142.89 1877.09,1143.88 1877.35,1144.73 1876.83,1145.46 1875.51,1146.05"/>
    </edge>
    <edge id=":carlow_10" function="internal">
        <lane id=":carlow_10_0" index="0" speed="7.11" length="15.12" shape="1873.43,1158.37 1876.81,1153.39 1878.29,1149.67 1877.85,1147.23 1875.51,1146.05"/>
    </edge>
    <edge id=":carlow_11" function="internal">
        <lane id=":carlow_11_0" index="0" speed="9.23" length="24.18" shape="1873.43,1158.37 1879.01,1152.47 1884.08,1149.92 1888.63,1150.71 1892.67,1154.84"/>
    </edge>
    <edge id=":carlow_12" function="internal">
        <lane id=":carlow_12_0" index="0" speed="6.05" length="14.31" shape="1873.43,1158.37 1876.58,1156.34 1879.95,1156.77 1882.42,1159.12 1882.86,1162.85"/>
    </edge>
    <edge id=":carlow_13" function="internal">
        <lane id=":carlow_13_0" index="0" speed="4.73" length="8.81" shape="1873.43,1158.37 1875.42,1157.24 1877.59,1157.67 1879.06,1159.22 1878.95,1161.39"/>
    </edge>
    <edge id=":carlow_14" function="internal">
        <lane id=":carlow_14_0" index="0" speed="4.59" length="8.30" shape="1873.43,1158.37 1875.70,1157.18 1877.29,1157.24 1878.19,1158.55 1878.42,1161.10"/>
    </edge>
    <edge id=":carrick_0" function="internal">
        <lane id=":carrick_0_0" index="0" speed="5.60" length="9.33" shape="1135.98,2583.04 1133.14,2583.28 1131.64,2584.30 1131.48,2586.11 1132.66,2588.70"/>
    </edge>
    <edge id=":carrick_1" function="internal">
        <lane id=":carrick_1_0" index="0" speed="7.14" length="14.91" shape="1135.98,2583.04 1130.71,2582.34 1127.52,2580.78 1126.41,2578.37 1127.37,2575.11"/>
    </edge>
    <edge id=":carrick_2" function="internal">
        <lane id=":carrick_2_0" index="0" speed="7.59" length="12.53" shape="1134.07,2577.74 1131.78,2579.84 1130.78,2582.36 1131.07,2585.32 1132.66,2588.70"/>
    </edge>
    <edge id=":carrick_3" function="internal">
        <lane id=":carrick_3_0" index="0" speed="6.26" length="15.03" shape="1134.07,2577.74 1128.99,2580.56 1126.18,2581.06 1125.64,2579.24 1127.37,2575.11"/>
    </edge>
    <edge id=":castlebar_0" function="internal">
        <lane id=":castlebar_0_0" index="0" speed="5.47" length="10.51" shape="314.21,2445.86 310.77,2446.61 309.46,2447.76 310.28,2449.30 313.21,2451.23"/>
    </edge>
    <edge id=":castlebar_1" function="internal">
        <lane id=":castlebar_1_0" index="0" speed="10.00" length="30.71" shape="314.21,2445.86 309.14,2443.33 305.55,2436.21 303.74,2427.28 303.98,2419.33"/>
    </edge>
    <edge id=":castlebar_2" function="internal">
        <lane id=":castlebar_2_0" index="0" speed="10.00" length="34.01" shape="314.21,2445.86 306.49,2444.58 303.02,2439.00 302.79,2430.28 304.76,2419.57"/>
    </edge>
    <edge id=":castlebar_3" function="internal">
        <lane id=":castlebar_3_0" index="0" speed="8.58" length="28.03" shape="314.21,2445.86 308.84,2444.40 309.06,2439.16 313.05,2432.11 319.00,2425.20"/>
    </edge>
    <edge id=":castlebar_4" function="internal">
        <lane id=":castlebar_4_0" index="0" speed="9.67" length="27.97" shape="323.32,2429.78 315.04,2437.11 310.59,2443.13 309.98,2447.83 313.21,2451.23"/>
    </edge>
    <edge id=":castlebar_5" function="internal">
        <lane id=":castlebar_5_0" index="0" speed="8.85" length="29.32" shape="323.32,2429.78 315.88,2433.00 309.10,2431.86 304.59,2427.06 303.98,2419.33"/>
    </edge>
    <edge id=":castlebar_6" function="internal">
        <lane id=":castlebar_6_0" index="0" speed="8.07" length="24.39" shape="323.32,2429.78 317.84,2430.99 311.33,2428.88 306.18,2424.67 304.76,2419.57"/>
    </edge>
    <edge id=":castlebar_7" function="internal">
        <lane id=":castlebar_7_0" index="0" speed="4.76" length="9.18" shape="323.32,2429.78 320.52,2430.25 318.87,2429.65 318.36,2427.97 319.00,2425.20"/>
    </edge>
    <edge id=":castlebar_8" function="internal">
        <lane id=":castlebar_8_0" index="0" speed="6.24" length="16.44" shape="315.51,2422.90 312.73,2428.12 312.39,2430.24 314.48,2429.27 319.00,2425.20"/>
    </edge>
    <edge id=":castlebar_9" function="internal">
        <lane id=":castlebar_9_0" index="0" speed="10.00" length="31.53" shape="315.51,2422.90 310.38,2433.10 308.29,2441.22 309.24,2447.27 313.21,2451.23"/>
    </edge>
    <edge id=":castlebar_10" function="internal">
        <lane id=":castlebar_10_0" index="0" speed="6.36" length="16.71" shape="315.51,2422.90 312.07,2425.70 307.95,2425.74 304.72,2423.47 303.98,2419.33"/>
    </edge>
    <edge id=":castlebar_11" function="internal">
        <lane id=":castlebar_11_0" index="0" speed="6.27" length="16.43" shape="315.51,2422.90 311.57,2426.10 308.47,2426.61 306.20,2424.43 304.76,2419.57"/>
    </edge>
    <edge id=":cavan_0" function="internal">
        <lane id=":cavan_0_0" index="0" speed="4.54" length="7.83" shape="1699.97,2645.59 1697.76,2643.76 1696.81,2643.34 1697.11,2644.33 1698.67,2646.75"/>
    </edge>
    <edge id=":cavan_1" function="internal">
        <lane id=":cavan_1_0" index="0" speed="6.13" length="14.92" shape="1699.97,2645.59 1695.82,2642.32 1693.67,2641.77 1693.52,2643.95 1695.38,2648.84"/>
    </edge>
    <edge id=":cavan_2" function="internal">
        <lane id=":cavan_2_0" index="0" speed="10.00" length="25.39" shape="1699.97,2645.59 1695.98,2642.00 1690.52,2637.12 1685.00,2632.31 1680.83,2628.93"/>
    </edge>
    <edge id=":cavan_3" function="internal">
        <lane id=":cavan_3_0" index="0" speed="10.00" length="29.40" shape="1686.61,2620.08 1688.09,2625.78 1691.56,2633.75 1695.58,2641.56 1698.67,2646.75"/>
    </edge>
    <edge id=":cavan_4" function="internal">
        <lane id=":cavan_4_0" index="0" speed="10.00" length="30.13" shape="1686.61,2620.08 1687.68,2626.04 1690.21,2634.63 1693.13,2643.13 1695.38,2648.84"/>
    </edge>
    <edge id=":cavan_5" function="internal">
        <lane id=":cavan_5_0" index="0" speed="6.60" length="13.79" shape="1686.61,2620.08 1686.24,2625.54 1685.16,2628.83 1683.35,2629.96 1680.83,2628.93"/>
    </edge>
    <edge id=":cavan_6" function="internal">
        <lane id=":cavan_6_0" index="0" speed="10.00" length="30.47" shape="1681.50,2621.58 1698.67,2646.75"/>
    </edge>
    <edge id=":cavan_7" function="internal">
        <lane id=":cavan_7_0" index="0" speed="10.00" length="30.60" shape="1681.50,2621.58 1684.51,2626.97 1688.67,2635.08 1692.71,2643.25 1695.38,2648.84"/>
    </edge>
    <edge id=":cavan_8" function="internal">
        <lane id=":cavan_8_0" index="0" speed="6.34" length="16.32" shape="1681.50,2621.58 1685.01,2627.58 1686.07,2630.81 1684.68,2631.26 1680.83,2628.93"/>
    </edge>
    <edge id=":clonmel_0" function="internal">
        <lane id=":clonmel_0_0" index="0" speed="9.37" length="35.11" shape="1384.64,653.33 1383.51,637.92 1381.23,629.42 1377.77,627.85 1373.15,633.20"/>
    </edge>
    <edge id=":clonmel_1" function="internal">