<?xml version="1.0" encoding="UTF-8"?>

<!-- generated on 2024-11-04 11:21:43 by Eclipse SUMO netconvert Version 1.19.0
<configuration xmlns:xsi="http://www.w3.org/2001/XMLSchema-instance" xsi:noNamespaceSchemaLocation="http://sumo.dlr.de/xsd/netconvertConfiguration.xsd">

    <input>
        <node-files value="config/workspace/nod.xml"/>
        <edge-files value="config/workspace/edg.xml"/>
    </input>

    <output>
        <output-file value="config/workspace/current_network.net.xml"/>
    </output>

</configuration>
-->

<net version="1.16" junctionCornerDetail="5" limitTurnSpeed="5.50" xmlns:xsi="http://www.w3.org/2001/XMLSchema-instance" xsi:noNamespaceSchemaLocation="http://sumo.dlr.de/xsd/net_file.xsd">

    <location netOffset="-682.00,4368.00" convBoundary="0.00,0.00,2498.00,3881.00" origBoundary="682.00,-4368.00,3180.00,-487.00" projParameter="!"/>

    <edge id=":antrim_0" function="internal">
        <lane id=":antrim_0_0" index="0" speed="10.00" length="43.61" shape="2293.36,3486.39 2285.86,3489.69 2273.17,3494.54 2260.40,3499.20 2252.63,3501.94"/>
    </edge>
    <edge id=":antrim_1" function="internal">
        <lane id=":antrim_1_0" index="0" speed="10.00" length="23.85" shape="2293.36,3486.39 2288.56,3487.80 2281.81,3488.30 2274.93,3488.13 2269.77,3487.56"/>
    </edge>
    <edge id=":antrim_2" function="internal">
        <lane id=":antrim_2_0" index="0" speed="10.00" length="18.00" shape="2293.36,3486.39 2289.52,3487.93 2285.46,3488.01 2281.19,3486.62 2276.71,3483.76"/>
    </edge>
    <edge id=":antrim_3" function="internal">
        <lane id=":antrim_3_0" index="0" speed="9.31" length="18.04" shape="2293.36,3486.39 2289.49,3487.83 2285.64,3487.43 2281.80,3485.19 2277.98,3481.11"/>
    </edge>
    <edge id=":antrim_4" function="internal">
        <lane id=":antrim_4_0" index="0" speed="9.19" length="18.10" shape="2293.36,3486.39 2289.49,3487.82 2285.67,3487.33 2281.91,3484.95 2278.21,3480.65"/>
    </edge>
    <edge id=":antrim_5" function="internal">
        <lane id=":antrim_5_0" index="0" speed="9.13" length="18.14" shape="2293.36,3486.39 2289.48,3487.81 2285.68,3487.29 2281.95,3484.84 2278.30,3480.45"/>
    </edge>
    <edge id=":antrim_6" function="internal">
        <lane id=":antrim_6_0" index="0" speed="8.36" length="17.62" shape="2293.36,3486.39 2289.79,3486.76 2285.77,3484.76 2282.13,3481.35 2279.73,3477.47"/>
    </edge>
    <edge id=":antrim_7" function="internal">
        <lane id=":antrim_7_0" index="0" speed="8.21" length="18.13" shape="2293.36,3486.39 2289.82,3486.54 2285.98,3484.00 2282.63,3479.98 2280.59,3475.69"/>
    </edge>
    <edge id=":antrim_8" function="internal">
        <lane id=":antrim_8_0" index="0" speed="8.18" length="18.44" shape="2293.36,3486.39 2289.84,3486.44 2286.09,3483.63 2282.89,3479.32 2281.00,3474.84"/>
    </edge>
    <edge id=":antrim_9" function="internal">
        <lane id=":antrim_9_0" index="0" speed="10.00" length="49.35" shape="2286.73,3470.73 2284.95,3479.96 2278.67,3488.23 2267.90,3495.56 2252.63,3501.94"/>
    </edge>
    <edge id=":antrim_10" function="internal">
        <lane id=":antrim_10_0" index="0" speed="9.90" length="26.27" shape="2286.73,3470.73 2285.34,3476.93 2281.33,3482.68 2275.77,3486.67 2269.77,3487.56"/>
    </edge>
    <edge id=":antrim_11" function="internal">
        <lane id=":antrim_11_0" index="0" speed="7.92" length="21.41" shape="2286.73,3470.73 2286.36,3477.41 2284.58,3482.78 2281.37,3485.38 2276.71,3483.76"/>
    </edge>
    <edge id=":antrim_12" function="internal">
        <lane id=":antrim_12_0" index="0" speed="6.47" length="15.53" shape="2286.73,3470.73 2285.84,3474.77 2283.47,3478.97 2280.54,3481.64 2277.98,3481.11"/>
    </edge>
    <edge id=":antrim_13" function="internal">
        <lane id=":antrim_13_0" index="0" speed="6.32" length="14.99" shape="2286.73,3470.73 2285.84,3474.62 2283.48,3478.66 2280.62,3481.22 2278.21,3480.65"/>
    </edge>
    <edge id=":antrim_14" function="internal">
        <lane id=":antrim_14_0" index="0" speed="6.26" length="14.74" shape="2286.73,3470.73 2285.84,3474.56 2283.49,3478.53 2280.66,3481.03 2278.30,3480.45"/>
    </edge>
    <edge id=":antrim_15" function="internal">
        <lane id=":antrim_15_0" index="0" speed="5.35" length="11.23" shape="2286.73,3470.73 2285.87,3473.57 2283.73,3476.45 2281.35,3478.15 2279.73,3477.47"/>
    </edge>
    <edge id=":antrim_16" function="internal">
        <lane id=":antrim_16_0" index="0" speed="4.84" length="9.17" shape="2286.73,3470.73 2285.92,3472.97 2283.97,3475.15 2281.87,3476.36 2280.59,3475.69"/>
    </edge>
    <edge id=":antrim_17" function="internal">
        <lane id=":antrim_17_0" index="0" speed="5.04" length="10.29" shape="2286.73,3470.73 2286.84,3473.91 2285.92,3475.65 2283.97,3475.96 2281.00,3474.84"/>
    </edge>
    <edge id=":antrim_18" function="internal">
        <lane id=":antrim_18_0" index="0" speed="10.00" length="47.20" shape="2282.68,3471.33 2282.78,3480.26 2277.81,3488.33 2267.76,3495.56 2252.63,3501.94"/>
    </edge>
    <edge id=":antrim_19" function="internal">
        <lane id=":antrim_19_0" index="0" speed="8.74" length="23.19" shape="2282.68,3471.33 2282.41,3476.85 2279.48,3482.42 2274.92,3486.50 2269.77,3487.56"/>
    </edge>
    <edge id=":antrim_20" function="internal">
        <lane id=":antrim_20_0" index="0" speed="6.55" length="15.75" shape="2282.68,3471.33 2282.78,3475.54 2281.52,3480.27 2279.35,3483.64 2276.71,3483.76"/>
    </edge>
    <edge id=":antrim_21" function="internal">
        <lane id=":antrim_21_0" index="0" speed="5.63" length="12.44" shape="2282.68,3471.33 2282.67,3474.73 2281.52,3478.61 2279.78,3481.29 2277.98,3481.11"/>
    </edge>
    <edge id=":antrim_22" function="internal">
        <lane id=":antrim_22_0" index="0" speed="5.48" length="11.85" shape="2282.68,3471.33 2282.65,3474.59 2281.53,3478.29 2279.87,3480.85 2278.21,3480.65"/>
    </edge>
    <edge id=":antrim_23" function="internal">
        <lane id=":antrim_23_0" index="0" speed="5.41" length="11.59" shape="2282.68,3471.33 2282.65,3474.52 2281.54,3478.15 2279.91,3480.66 2278.30,3480.45"/>
    </edge>
    <edge id=":antrim_24" function="internal">
        <lane id=":antrim_24_0" index="0" speed="4.45" length="7.79" shape="2282.68,3471.33 2282.60,3473.51 2281.75,3476.01 2280.63,3477.71 2279.73,3477.47"/>
    </edge>
    <edge id=":antrim_25" function="internal">
        <lane id=":antrim_25_0" index="0" speed="10.00" length="59.55" shape="2282.68,3471.33 2276.67,3450.61 2274.39,3444.29 2275.83,3452.37 2281.00,3474.84"/>
    </edge>
    <edge id=":antrim_26" function="internal">
        <lane id=":antrim_26_0" index="0" speed="4.23" length="7.07" shape="2282.68,3471.33 2283.79,3473.21 2283.81,3474.56 2282.75,3475.39 2280.59,3475.69"/>
    </edge>
    <edge id=":antrim_27" function="internal">
        <lane id=":antrim_27_0" index="0" speed="5.11" length="10.88" shape="2281.41,3473.99 2279.88,3470.60 2279.24,3469.75 2279.47,3471.45 2280.59,3475.69"/>
    </edge>
    <edge id=":antrim_28" function="internal">
        <lane id=":antrim_28_0" index="0" speed="3.53" length="3.98" shape="2281.41,3473.99 2280.86,3472.80 2280.61,3472.55 2280.66,3473.23 2281.00,3474.84"/>
    </edge>
    <edge id=":antrim_29" function="internal">
        <lane id=":antrim_29_0" index="0" speed="10.00" length="41.10" shape="2281.41,3473.99 2279.04,3480.20 2271.02,3488.89 2261.00,3497.12 2252.63,3501.94"/>
    </edge>
    <edge id=":antrim_30" function="internal">
        <lane id=":antrim_30_0" index="0" speed="7.93" length="20.17" shape="2281.41,3473.99 2281.39,3478.58 2278.65,3483.25 2274.38,3486.67 2269.77,3487.56"/>
    </edge>
    <edge id=":antrim_31" function="internal">
        <lane id=":antrim_31_0" index="0" speed="5.78" length="12.49" shape="2281.41,3473.99 2281.67,3477.23 2280.65,3480.96 2278.84,3483.64 2276.71,3483.76"/>
    </edge>
    <edge id=":antrim_32" function="internal">
        <lane id=":antrim_32_0" index="0" speed="4.85" length="9.13" shape="2281.41,3473.99 2281.53,3476.42 2280.68,3479.25 2279.34,3481.22 2277.98,3481.11"/>
    </edge>
    <edge id=":antrim_33" function="internal">
        <lane id=":antrim_33_0" index="0" speed="4.69" length="8.54" shape="2281.41,3473.99 2281.51,3476.27 2280.69,3478.93 2279.44,3480.78 2278.21,3480.65"/>
    </edge>
    <edge id=":antrim_34" function="internal">
        <lane id=":antrim_34_0" index="0" speed="4.62" length="8.28" shape="2281.41,3473.99 2281.50,3476.20 2280.70,3478.78 2279.48,3480.58 2278.30,3480.45"/>
    </edge>
    <edge id=":antrim_35" function="internal">
        <lane id=":antrim_35_0" index="0" speed="3.91" length="5.65" shape="2281.41,3473.99 2282.30,3475.49 2282.31,3476.57 2281.46,3477.23 2279.73,3477.47"/>
    </edge>
    <edge id=":antrim_36" function="internal">
        <lane id=":antrim_36_0" index="0" speed="10.00" length="0.52" shape="2279.80,3477.34 2279.69,3477.21 2279.65,3477.18 2279.66,3477.27 2279.73,3477.47"/>
    </edge>
    <edge id=":antrim_37" function="internal">
        <lane id=":antrim_37_0" index="0" speed="3.77" length="4.53" shape="2279.80,3477.34 2280.63,3478.36 2281.04,3478.43 2281.03,3477.54 2280.59,3475.69"/>
    </edge>
    <edge id=":antrim_38" function="internal">
        <lane id=":antrim_38_0" index="0" speed="4.23" length="6.13" shape="2279.80,3477.34 2280.89,3478.64 2281.46,3478.66 2281.49,3477.39 2281.00,3474.84"/>
    </edge>
    <edge id=":antrim_39" function="internal">
        <lane id=":antrim_39_0" index="0" speed="10.00" length="37.75" shape="2279.80,3477.34 2278.08,3482.70 2270.57,3490.28 2260.88,3497.54 2252.63,3501.94"/>
    </edge>
    <edge id=":antrim_40" function="internal">
        <lane id=":antrim_40_0" index="0" speed="6.86" length="16.36" shape="2279.80,3477.34 2280.04,3480.71 2277.57,3484.25 2273.70,3486.88 2269.77,3487.56"/>
    </edge>
    <edge id=":antrim_41" function="internal">
        <lane id=":antrim_41_0" index="0" speed="4.70" length="8.31" shape="2279.80,3477.34 2280.15,3479.37 2279.46,3481.83 2278.17,3483.65 2276.71,3483.76"/>
    </edge>
    <edge id=":antrim_42" function="internal">
        <lane id=":antrim_42_0" index="0" speed="3.72" length="4.89" shape="2279.80,3477.34 2279.97,3478.57 2279.51,3480.07 2278.74,3481.15 2277.98,3481.11"/>
    </edge>
    <edge id=":antrim_43" function="internal">
        <lane id=":antrim_43_0" index="0" speed="10.00" length="171.98" shape="2279.80,3477.34 2242.92,3424.96 2230.38,3408.02 2242.18,3426.52 2278.30,3480.45"/>
    </edge>
    <edge id=":antrim_44" function="internal">
        <lane id=":antrim_44_0" index="0" speed="3.83" length="5.36" shape="2279.80,3477.34 2280.64,3478.76 2280.66,3479.79 2279.84,3480.42 2278.21,3480.65"/>
    </edge>
    <edge id=":antrim_45" function="internal">
        <lane id=":antrim_45_0" index="0" speed="3.00" length="2.15" shape="2279.42,3478.13 2279.86,3478.63 2280.07,3478.69 2280.02,3478.30 2279.73,3477.47"/>
    </edge>
    <edge id=":antrim_46" function="internal">
        <lane id=":antrim_46_0" index="0" speed="4.19" length="5.96" shape="2279.42,3478.13 2280.57,3479.34 2281.15,3479.34 2281.15,3478.12 2280.59,3475.69"/>
    </edge>
    <edge id=":antrim_47" function="internal">
        <lane id=":antrim_47_0" index="0" speed="4.57" length="7.32" shape="2279.42,3478.13 2280.78,3479.52 2281.50,3479.43 2281.57,3477.87 2281.00,3474.84"/>
    </edge>
    <edge id=":antrim_48" function="internal">
        <lane id=":antrim_48_0" index="0" speed="10.00" length="36.98" shape="2279.42,3478.13 2277.87,3483.28 2270.47,3490.60 2260.86,3497.63 2252.63,3501.94"/>
    </edge>
    <edge id=":antrim_49" function="internal">
        <lane id=":antrim_49_0" index="0" speed="6.61" length="15.46" shape="2279.42,3478.13 2279.71,3481.21 2277.30,3484.48 2273.53,3486.93 2269.77,3487.56"/>
    </edge>
    <edge id=":antrim_50" function="internal">
        <lane id=":antrim_50_0" index="0" speed="4.43" length="7.31" shape="2279.42,3478.13 2279.77,3479.88 2279.16,3482.04 2278.01,3483.65 2276.71,3483.76"/>
    </edge>
    <edge id=":antrim_51" function="internal">
        <lane id=":antrim_51_0" index="0" speed="9.20" length="41.09" shape="2279.42,3478.13 2269.93,3466.43 2266.57,3462.95 2269.32,3467.69 2278.21,3480.65"/>
    </edge>
    <edge id=":antrim_52" function="internal">
        <lane id=":antrim_52_0" index="0" speed="7.86" length="29.22" shape="2279.42,3478.13 2272.70,3469.90 2270.27,3467.54 2272.14,3471.05 2278.30,3480.45"/>
    </edge>
    <edge id=":antrim_53" function="internal">
        <lane id=":antrim_53_0" index="0" speed="3.70" length="4.83" shape="2279.42,3478.13 2280.18,3479.41 2280.19,3480.34 2279.46,3480.90 2277.98,3481.11"/>
    </edge>
    <edge id=":antrim_54" function="internal">
        <lane id=":antrim_54_0" index="0" speed="5.77" length="13.78" shape="2279.55,3477.85 2275.70,3475.12 2274.15,3474.75 2274.92,3476.75 2277.98,3481.11"/>
    </edge>
    <edge id=":antrim_55" function="internal">
        <lane id=":antrim_55_0" index="0" speed="5.12" length="10.27" shape="2279.55,3477.85 2276.73,3475.89 2275.57,3475.70 2276.06,3477.29 2278.21,3480.65"/>
    </edge>
    <edge id=":antrim_56" function="internal">
        <lane id=":antrim_56_0" index="0" speed="4.87" length="9.01" shape="2279.55,3477.85 2277.10,3476.16 2276.07,3476.02 2276.47,3477.45 2278.30,3480.45"/>
    </edge>
    <edge id=":antrim_57" function="internal">
        <lane id=":antrim_57_0" index="0" speed="10.00" length="0.81" shape="2279.55,3477.85 2279.74,3477.97 2279.84,3477.95 2279.83,3477.78 2279.73,3477.47"/>
    </edge>
    <edge id=":antrim_58" function="internal">
        <lane id=":antrim_58_0" index="0" speed="4.18" length="5.26" shape="2279.55,3477.85 2280.64,3478.45 2281.24,3478.14 2281.36,3476.94 2281.00,3474.84"/>
    </edge>
    <edge id=":antrim_59" function="internal">
        <lane id=":antrim_59_0" index="0" speed="5.23" length="9.40" shape="2278.13,3480.81 2280.16,3481.96 2281.24,3481.49 2281.39,3479.40 2280.59,3475.69"/>
    </edge>
    <edge id=":antrim_60" function="internal">
        <lane id=":antrim_60_0" index="0" speed="10.00" length="34.43" shape="2278.13,3480.81 2277.23,3485.20 2270.23,3491.63 2260.80,3497.94 2252.63,3501.94"/>
    </edge>
    <edge id=":antrim_61" function="internal">
        <lane id=":antrim_61_0" index="0" speed="5.72" length="12.39" shape="2278.13,3480.81 2278.51,3482.89 2276.33,3485.26 2272.96,3487.09 2269.77,3487.56"/>
    </edge>
    <edge id=":antrim_62" function="internal">
        <lane id=":antrim_62_0" index="0" speed="3.68" length="4.78" shape="2278.13,3480.81 2278.88,3482.08 2278.90,3482.99 2278.17,3483.55 2276.71,3483.76"/>
    </edge>
    <edge id=":antrim_63" function="internal">
        <lane id=":antrim_63_0" index="0" speed="8.09" length="26.25" shape="2251.61,3498.91 2263.28,3494.65 2270.20,3491.33 2272.36,3488.97 2269.77,3487.56"/>
    </edge>
    <edge id=":antrim_64" function="internal">
        <lane id=":antrim_64_0" index="0" speed="9.82" length="31.64" shape="2251.61,3498.91 2264.83,3494.03 2273.42,3489.88 2277.38,3486.46 2276.71,3483.76"/>
    </edge>
    <edge id=":antrim_65" function="internal">
        <lane id=":antrim_65_0" index="0" speed="10.00" length="34.36" shape="2251.61,3498.91 2265.17,3493.78 2274.09,3489.10 2278.36,3484.88 2277.98,3481.11"/>
    </edge>
    <edge id=":antrim_66" function="internal">
        <lane id=":antrim_66_0" index="0" speed="10.00" length="34.83" shape="2251.61,3498.91 2265.22,3493.74 2274.19,3488.97 2278.52,3484.61 2278.21,3480.65"/>
    </edge>
    <edge id=":antrim_67" function="internal">
        <lane id=":antrim_67_0" index="0" speed="10.00" length="35.04" shape="2251.61,3498.91 2265.24,3493.72 2274.23,3488.92 2278.58,3484.49 2278.30,3480.45"/>
    </edge>
    <edge id=":antrim_68" function="internal">
        <lane id=":antrim_68_0" index="0" speed="10.00" length="38.08" shape="2251.61,3498.91 2265.47,3493.49 2274.78,3488.11 2279.54,3482.77 2279.73,3477.47"/>
    </edge>
    <edge id=":antrim_69" function="internal">
        <lane id=":antrim_69_0" index="0" speed="10.00" length="39.92" shape="2251.61,3498.91 2265.59,3493.36 2275.07,3487.64 2280.07,3481.75 2280.59,3475.69"/>
    </edge>
    <edge id=":antrim_70" function="internal">
        <lane id=":antrim_70_0" index="0" speed="10.00" length="40.80" shape="2251.61,3498.91 2265.63,3493.29 2275.21,3487.41 2280.33,3481.26 2281.00,3474.84"/>
    </edge>
    <edge id=":antrim_71" function="internal">
        <lane id=":antrim_71_0" index="0" speed="3.65" length="4.67" shape="2251.61,3498.91 2253.00,3499.28 2253.64,3499.91 2253.51,3500.80 2252.63,3501.94"/>
    </edge>
    <edge id=":antrim_72" function="internal">
        <lane id=":antrim_72_0" index="0" speed="6.79" length="20.30" shape="2254.28,3505.57 2260.62,3501.60 2262.46,3499.67 2259.80,3499.79 2252.63,3501.94"/>
    </edge>
    <edge id=":antrim_73" function="internal">
        <lane id=":antrim_73_0" index="0" speed="8.88" length="29.35" shape="2254.28,3505.57 2265.45,3498.52 2271.75,3493.17 2273.19,3489.51 2269.77,3487.56"/>
    </edge>
    <edge id=":antrim_74" function="internal">
        <lane id=":antrim_74_0" index="0" speed="10.00" length="33.62" shape="2254.28,3505.57 2266.51,3497.92 2274.32,3491.73 2277.72,3487.02 2276.71,3483.76"/>
    </edge>
    <edge id=":antrim_75" function="internal">
        <lane id=":antrim_75_0" index="0" speed="10.00" length="36.34" shape="2254.28,3505.57 2266.77,3497.65 2274.88,3490.93 2278.62,3485.42 2277.98,3481.11"/>
    </edge>
    <edge id=":antrim_76" function="internal">
        <lane id=":antrim_76_0" index="0" speed="10.00" length="36.81" shape="2254.28,3505.57 2266.80,3497.61 2274.97,3490.80 2278.77,3485.15 2278.21,3480.65"/>
    </edge>
    <edge id=":antrim_77" function="internal">
        <lane id=":antrim_77_0" index="0" speed="10.00" length="37.03" shape="2254.28,3505.57 2266.82,3497.59 2275.00,3490.74 2278.83,3485.03 2278.30,3480.45"/>
    </edge>
    <edge id=":antrim_78" function="internal">
        <lane id=":antrim_78_0" index="0" speed="10.00" length="40.13" shape="2254.28,3505.57 2267.02,3497.34 2275.51,3489.91 2279.74,3483.29 2279.73,3477.47"/>
    </edge>
    <edge id=":antrim_79" function="internal">
        <lane id=":antrim_79_0" index="0" speed="10.00" length="42.00" shape="2254.28,3505.57 2267.12,3497.20 2275.78,3489.44 2280.27,3482.27 2280.59,3475.69"/>
    </edge>
    <edge id=":antrim_80" function="internal">
        <lane id=":antrim_80_0" index="0" speed="10.00" length="42.91" shape="2254.28,3505.57 2267.16,3497.14 2275.90,3489.21 2280.52,3481.77 2281.00,3474.84"/>
    </edge>
    <edge id=":athlone_0" function="internal">
        <lane id=":athlone_0_0" index="0" speed="6.84" length="18.00" shape="1258.96,1986.35 1257.20,1978.42 1255.46,1974.06 1253.71,1973.26 1251.98,1976.02"/>
    </edge>
    <edge id=":athlone_1" function="internal">
        <lane id=":athlone_1_0" index="0" speed="10.00" length="31.19" shape="1258.96,1986.35 1256.47,1975.65 1253.36,1967.64 1249.63,1962.30 1245.27,1959.65"/>
    </edge>
    <edge id=":athlone_2" function="internal">
        <lane id=":athlone_2_0" index="0" speed="10.00" length="33.08" shape="1258.96,1986.35 1257.35,1979.91 1254.42,1970.30 1250.98,1960.95 1247.87,1955.32"/>
    </edge>
    <edge id=":athlone_3" function="internal">
        <lane id=":athlone_3_0" index="0" speed="4.52" length="8.12" shape="1258.96,1986.35 1259.76,1983.98 1260.93,1982.95 1262.45,1983.26 1264.33,1984.92"/>
    </edge>
    <edge id=":athlone_4" function="internal">
        <lane id=":athlone_4_0" index="0" speed="6.84" length="19.90" shape="1272.56,1989.80 1267.49,1982.38 1264.43,1979.09 1263.37,1979.94 1264.33,1984.92"/>
    </edge>
    <edge id=":athlone_5" function="internal">
        <lane id=":athlone_5_0" index="0" speed="9.45" length="29.99" shape="1272.56,1989.80 1265.20,1979.46 1259.32,1973.72 1254.91,1972.57 1251.98,1976.02"/>
    </edge>
    <edge id=":athlone_6" function="internal">
        <lane id=":athlone_6_0" index="0" speed="10.00" length="40.81" shape="1272.56,1989.80 1267.84,1983.50 1259.71,1973.65 1251.19,1964.34 1245.27,1959.65"/>
    </edge>
    <edge id=":athlone_7" function="internal">
        <lane id=":athlone_7_0" index="0" speed="10.00" length="42.43" shape="1272.56,1989.80 1268.07,1983.12 1260.55,1972.29 1252.86,1961.58 1247.87,1955.32"/>
    </edge>
    <edge id=":athlone_8" function="internal">
        <lane id=":athlone_8_0" index="0" speed="7.01" length="20.80" shape="1273.19,1989.37 1267.77,1981.86 1264.48,1978.62 1263.33,1979.64 1264.33,1984.92"/>
    </edge>
    <edge id=":athlone_9" function="internal">
        <lane id=":athlone_9_0" index="0" speed="9.54" length="30.25" shape="1273.19,1989.37 1265.57,1979.19 1259.49,1973.57 1254.96,1972.51 1251.98,1976.02"/>
    </edge>
    <edge id=":athlone_10" function="internal">
        <lane id=":athlone_10_0" index="0" speed="10.00" length="40.92" shape="1273.19,1989.37 1268.33,1983.17 1259.99,1973.46 1251.27,1964.28 1245.27,1959.65"/>
    </edge>
    <edge id=":athlone_11" function="internal">
        <lane id=":athlone_11_0" index="0" speed="10.00" length="42.45" shape="1273.19,1989.37 1268.56,1982.79 1260.83,1972.10 1252.94,1961.53 1247.87,1955.32"/>
    </edge>
    <edge id=":athlone_12" function="internal">
        <lane id=":athlone_12_0" index="0" speed="8.39" length="22.32" shape="1265.50,1965.41 1262.73,1965.85 1261.61,1969.25 1262.15,1975.61 1264.33,1984.92"/>
    </edge>
    <edge id=":athlone_13" function="internal">
        <lane id=":athlone_13_0" index="0" speed="9.47" length="19.02" shape="1265.50,1965.41 1261.45,1965.15 1257.85,1966.83 1254.69,1970.45 1251.98,1976.02"/>
    </edge>
    <edge id=":athlone_14" function="internal">
        <lane id=":athlone_14_0" index="0" speed="10.00" length="21.03" shape="1265.50,1965.41 1245.27,1959.65"/>
    </edge>
    <edge id=":athlone_15" function="internal">
        <lane id=":athlone_15_0" index="0" speed="10.00" length="20.43" shape="1265.50,1965.41 1261.22,1963.74 1256.22,1961.15 1251.46,1958.17 1247.87,1955.32"/>
    </edge>
    <edge id=":athlone_16" function="internal">
        <lane id=":athlone_16_0" index="0" speed="10.00" length="26.55" shape="1265.58,1960.23 1262.66,1962.50 1261.47,1967.36 1262.03,1974.84 1264.33,1984.92"/>
    </edge>
    <edge id=":athlone_17" function="internal">
        <lane id=":athlone_17_0" index="0" speed="10.00" length="21.60" shape="1265.58,1960.23 1261.59,1962.01 1257.99,1965.24 1254.79,1969.91 1251.98,1976.02"/>
    </edge>
    <edge id=":athlone_18" function="internal">
        <lane id=":athlone_18_0" index="0" speed="10.00" length="20.45" shape="1265.58,1960.23 1261.04,1960.85 1255.42,1960.91 1249.79,1960.49 1245.27,1959.65"/>
    </edge>
    <edge id=":athlone_19" function="internal">
        <lane id=":athlone_19_0" index="0" speed="10.00" length="19.25" shape="1265.58,1960.23 1260.70,1960.88 1256.12,1960.27 1251.85,1958.42 1247.87,1955.32"/>
    </edge>
    <edge id=":athlone_20" function="internal">
        <lane id=":athlone_20_0" index="0" speed="10.00" length="31.60" shape="1260.39,1953.71 1260.09,1959.89 1261.21,1969.27 1262.91,1978.67 1264.33,1984.92"/>
    </edge>
    <edge id=":athlone_21" function="internal">
        <lane id=":athlone_21_0" index="0" speed="10.00" length="23.85" shape="1260.39,1953.71 1251.98,1976.02"/>
    </edge>
    <edge id=":athlone_22" function="internal">
        <lane id=":athlone_22_0" index="0" speed="9.26" length="18.17" shape="1260.39,1953.71 1258.17,1957.54 1254.91,1959.81 1250.61,1960.51 1245.27,1959.65"/>
    </edge>
    <edge id=":athlone_23" function="internal">
        <lane id=":athlone_23_0" index="0" speed="7.52" length="16.36" shape="1260.39,1953.71 1258.21,1957.62 1255.39,1959.19 1251.94,1958.42 1247.87,1955.32"/>
    </edge>
    <edge id=":athlone_24" function="internal">
        <lane id=":athlone_24_0" index="0" speed="10.00" length="36.44" shape="1252.45,1950.49 1255.07,1957.07 1258.74,1967.57 1262.23,1978.14 1264.33,1984.92"/>
    </edge>
    <edge id=":athlone_25" function="internal">
        <lane id=":athlone_25_0" index="0" speed="10.00" length="26.27" shape="1252.45,1950.49 1254.41,1955.99 1254.98,1962.08 1254.17,1968.76 1251.98,1976.02"/>
    </edge>
    <edge id=":athlone_26" function="internal">
        <lane id=":athlone_26_0" index="0" speed="7.29" length="18.22" shape="1252.45,1950.49 1254.49,1955.95 1253.97,1959.30 1250.90,1960.53 1245.27,1959.65"/>
    </edge>
    <edge id=":athlone_27" function="internal">
        <lane id=":athlone_27_0" index="0" speed="5.03" length="9.72" shape="1252.45,1950.49 1253.11,1953.42 1252.57,1955.19 1250.82,1955.83 1247.87,1955.32"/>
    </edge>
    <edge id=":athlone_28" function="internal">
        <lane id=":athlone_28_0" index="0" speed="3.76" length="4.83" shape="1251.27,1975.74 1250.95,1977.52 1250.96,1978.16 1251.30,1977.66 1251.98,1976.02"/>
    </edge>
    <edge id=":athlone_29" function="internal">
        <lane id=":athlone_29_0" index="0" speed="9.43" length="19.11" shape="1251.27,1975.74 1251.97,1969.63 1251.20,1964.92 1248.97,1961.59 1245.27,1959.65"/>
    </edge>
    <edge id=":athlone_30" function="internal">
        <lane id=":athlone_30_0" index="0" speed="10.00" length="21.56" shape="1251.27,1975.74 1252.18,1969.14 1251.91,1963.53 1250.47,1958.93 1247.87,1955.32"/>
    </edge>
    <edge id=":athlone_31" function="internal">
        <lane id=":athlone_31_0" index="0" speed="7.31" length="21.44" shape="1251.27,1975.74 1253.75,1972.31 1257.59,1973.87 1261.54,1978.66 1264.33,1984.92"/>
    </edge>
    <edge id=":belfast_0" function="internal">
        <lane id=":belfast_0_0" index="0" speed="10.00" length="76.48" shape="2493.75,3308.64 2494.62,3332.54 2491.26,3352.02 2483.67,3367.10 2471.87,3377.78"/>
    </edge>
    <edge id=":belfast_1" function="internal">
        <lane id=":belfast_1_0" index="0" speed="6.69" length="19.58" shape="2493.75,3308.64 2492.40,3313.63 2488.36,3316.50 2483.69,3316.54 2480.44,3313.03"/>
    </edge>
    <edge id=":belfast_2" function="internal">
        <lane id=":belfast_2_0" index="0" speed="5.58" length="13.41" shape="2493.75,3308.64 2492.65,3312.63 2490.83,3314.44 2488.29,3314.07 2485.03,3311.52"/>
    </edge>
    <edge id=":belfast_3" function="internal">
        <lane id=":belfast_3_0" index="0" speed="6.90" length="21.73" shape="2482.73,3312.27 2485.58,3319.84 2486.91,3322.24 2486.73,3319.46 2485.03,3311.52"/>
    </edge>
    <edge id=":belfast_4" function="internal">
        <lane id=":belfast_4_0" index="0" speed="10.00" length="72.13" shape="2482.73,3312.27 2488.51,3334.52 2488.62,3352.86 2483.07,3367.27 2471.87,3377.78"/>
    </edge>
    <edge id=":belfast_5" function="internal">
        <lane id=":belfast_5_0" index="0" speed="3.34" length="3.53" shape="2482.73,3312.27 2482.44,3313.32 2481.96,3313.80 2481.29,3313.70 2480.44,3313.03"/>
    </edge>
    <edge id=":belfast_6" function="internal">
        <lane id=":belfast_6_0" index="0" speed="3.60" length="4.38" shape="2480.68,3312.95 2480.05,3311.43 2479.80,3310.94 2479.93,3311.47 2480.44,3313.03"/>
    </edge>
    <edge id=":belfast_7" function="internal">
        <lane id=":belfast_7_0" index="0" speed="8.05" length="29.92" shape="2480.68,3312.95 2485.11,3323.12 2487.31,3326.27 2487.28,3322.40 2485.03,3311.52"/>
    </edge>
    <edge id=":belfast_8" function="internal">
        <lane id=":belfast_8_0" index="0" speed="10.00" length="71.54" shape="2480.68,3312.95 2487.37,3334.89 2488.13,3353.01 2482.96,3367.31 2471.87,3377.78"/>
    </edge>
    <edge id=":belfast_9" function="internal">
        <lane id=":belfast_9_0" index="0" speed="7.70" length="27.34" shape="2476.98,3314.46 2481.74,3323.44 2483.90,3326.20 2483.47,3322.73 2480.44,3313.03"/>
    </edge>
    <edge id=":belfast_10" function="internal">
        <lane id=":belfast_10_0" index="0" speed="9.09" length="37.63" shape="2476.98,3314.46 2483.62,3326.53 2487.18,3330.07 2487.65,3325.06 2485.03,3311.52"/>
    </edge>
    <edge id=":belfast_11" function="internal">
        <lane id=":belfast_11_0" index="0" speed="10.00" length="70.37" shape="2476.98,3314.46 2485.32,3335.72 2487.26,3353.36 2482.77,3367.38 2471.87,3377.78"/>
    </edge>
    <edge id=":belfast_12" function="internal">
        <lane id=":belfast_12_0" index="0" speed="8.76" length="33.89" shape="2485.67,3340.39 2488.15,3342.52 2488.10,3338.67 2485.53,3328.84 2480.44,3313.03"/>
    </edge>
    <edge id=":belfast_13" function="internal">
        <lane id=":belfast_13_0" index="0" speed="9.26" length="36.63" shape="2485.67,3340.39 2489.00,3343.20 2490.00,3339.32 2488.68,3328.76 2485.03,3311.52"/>
    </edge>
    <edge id=":belfast_14" function="internal">
        <lane id=":belfast_14_0" index="0" speed="10.00" length="46.02" shape="2485.67,3340.39 2490.30,3350.25 2489.54,3359.77 2483.40,3368.95 2471.87,3377.78"/>
    </edge>
    <edge id=":belfast_15" function="internal">
        <lane id=":belfast_15_0" index="0" speed="10.00" length="43.41" shape="2477.01,3345.45 2484.00,3347.52 2486.90,3342.80 2485.72,3331.31 2480.44,3313.03"/>
    </edge>
    <edge id=":belfast_16" function="internal">
        <lane id=":belfast_16_0" index="0" speed="10.00" length="45.39" shape="2477.01,3345.45 2484.47,3347.53 2488.30,3342.57 2488.48,3330.57 2485.03,3311.52"/>
    </edge>
    <edge id=":belfast_17" function="internal">
        <lane id=":belfast_17_0" index="0" speed="10.00" length="41.54" shape="2477.01,3345.45 2484.96,3353.14 2486.10,3361.59 2481.41,3370.06 2471.87,3377.78"/>
    </edge>
    <edge id=":belfast_18" function="internal">
        <lane id=":belfast_18_0" index="0" speed="10.00" length="48.91" shape="2469.34,3346.35 2479.79,3348.32 2485.12,3343.43 2485.34,3331.66 2480.44,3313.03"/>
    </edge>
    <edge id=":belfast_19" function="internal">
        <lane id=":belfast_19_0" index="0" speed="10.00" length="51.10" shape="2469.34,3346.35 2480.22,3348.29 2486.46,3343.13 2488.06,3330.87 2485.03,3311.52"/>
    </edge>