<?xml version="1.0" encoding="UTF-8"?>

<!-- generated on 2024-10-31 14:40:11 by Eclipse SUMO netconvert Version 1.19.0
<configuration xmlns:xsi="http://www.w3.org/2001/XMLSchema-instance" xsi:noNamespaceSchemaLocation="http://sumo.dlr.de/xsd/netconvertConfiguration.xsd">

    <input>
        <node-files value="config/workspace/nod.xml"/>
        <edge-files value="config/workspace/edg.xml"/>
    </input>

    <output>
        <output-file value="config/workspace/current_network.net.xml"/>
    </output>

</configuration>
-->

<net version="1.16" junctionCornerDetail="5" limitTurnSpeed="5.50" xmlns:xsi="http://www.w3.org/2001/XMLSchema-instance" xsi:noNamespaceSchemaLocation="http://sumo.dlr.de/xsd/net_file.xsd">

    <location netOffset="-682.00,4368.00" convBoundary="0.00,0.00,2498.00,3881.00" origBoundary="682.00,-4368.00,3180.00,-487.00" projParameter="!"/>

    <edge id=":antrim_0" function="internal">
        <lane id=":antrim_0_0" index="0" speed="5.06" length="10.19" shape="2289.11,3471.82 2287.91,3474.19 2285.57,3475.15 2283.18,3474.60 2281.83,3472.44"/>
    </edge>
    <edge id=":antrim_1" function="internal">
        <lane id=":antrim_1_0" index="0" speed="3.64" length="4.65" shape="2284.97,3471.95 2284.37,3473.25 2283.64,3473.77 2282.80,3473.50 2281.83,3472.44"/>
    </edge>
    <edge id=":antrim_2" function="internal">
        <lane id=":antrim_2_0" index="0" speed="9.22" length="34.88" shape="2259.50,3451.55 2269.88,3464.66 2277.06,3472.51 2281.04,3475.10 2281.83,3472.44"/>
    </edge>
    <edge id=":antrim_3" function="internal">
        <lane id=":antrim_3_0" index="0" speed="9.28" length="33.08" shape="2256.66,3454.08 2268.07,3464.70 2276.07,3471.30 2280.65,3473.88 2281.83,3472.44"/>
    </edge>
    <edge id=":athlone_0" function="internal">
        <lane id=":athlone_0_0" index="0" speed="10.00" length="41.13" shape="1256.57,1972.89 1258.12,1967.70 1265.04,1971.34 1274.78,1980.28 1284.78,1991.01"/>
    </edge>
    <edge id=":athlone_1" function="internal">
        <lane id=":athlone_1_0" index="0" speed="9.05" length="34.17" shape="1256.57,1972.89 1259.22,1971.90 1266.79,1977.58 1275.62,1986.00 1282.04,1993.24"/>
    </edge>
    <edge id=":athlone_2" function="internal">
        <lane id=":athlone_2_0" index="0" speed="3.65" length="4.67" shape="1256.57,1972.89 1257.14,1971.56 1257.85,1971.03 1258.71,1971.27 1259.72,1972.31"/>
    </edge>
    <edge id=":athlone_3" function="internal">
        <lane id=":athlone_3_0" index="0" speed="8.98" length="32.14" shape="1270.02,1966.72 1267.51,1967.25 1269.13,1971.47 1274.89,1979.39 1284.78,1991.01"/>
    </edge>
    <edge id=":athlone_4" function="internal">
        <lane id=":athlone_4_0" index="0" speed="9.29" length="33.25" shape="1270.02,1966.72 1267.06,1967.30 1268.08,1971.92 1273.07,1980.57 1282.04,1993.24"/>
    </edge>
    <edge id=":athlone_5" function="internal">
        <lane id=":athlone_5_0" index="0" speed="7.19" length="15.23" shape="1270.02,1966.72 1264.89,1965.77 1261.46,1966.39 1259.73,1968.56 1259.72,1972.31"/>
    </edge>
    <edge id=":athlone_6" function="internal">
        <lane id=":athlone_6_0" index="0" speed="10.00" length="42.44" shape="1258.96,1957.58 1260.15,1960.82 1264.85,1967.48 1273.06,1977.54 1284.78,1991.01"/>
    </edge>
    <edge id=":athlone_7" function="internal">
        <lane id=":athlone_7_0" index="0" speed="10.00" length="42.66" shape="1258.96,1957.58 1259.97,1961.00 1264.15,1968.08 1271.51,1978.82 1282.04,1993.24"/>
    </edge>
    <edge id=":athlone_8" function="internal">
        <lane id=":athlone_8_0" index="0" speed="10.00" length="14.93" shape="1258.96,1957.58 1258.22,1961.17 1258.35,1964.86 1258.97,1968.59 1259.72,1972.31"/>
    </edge>
    <edge id=":athlone_9" function="internal">
        <lane id=":athlone_9_0" index="0" speed="10.00" length="38.64" shape="1251.88,1972.83 1256.67,1972.45 1266.55,1977.40 1277.31,1984.60 1284.78,1991.01"/>
    </edge>
    <edge id=":athlone_10" function="internal">
        <lane id=":athlone_10_0" index="0" speed="10.00" length="42.74" shape="1251.88,1972.83 1256.05,1968.25 1263.45,1972.07 1272.61,1981.38 1282.04,1993.24"/>
    </edge>
    <edge id=":athlone_11" function="internal">
        <lane id=":athlone_11_0" index="0" speed="5.32" length="10.81" shape="1251.88,1972.83 1253.37,1970.35 1255.84,1969.36 1258.29,1969.98 1259.72,1972.31"/>
    </edge>
    <edge id=":belfast_0" function="internal">
        <lane id=":belfast_0_0" index="0" speed="10.00" length="38.26" shape="2494.97,3326.39 2497.90,3340.96 2498.94,3351.99 2498.10,3359.47 2495.36,3363.41"/>
    </edge>
    <edge id=":belfast_1" function="internal">
        <lane id=":belfast_1_0" index="0" speed="9.62" length="35.31" shape="2491.86,3327.13 2491.20,3336.23 2485.60,3341.65 2477.19,3342.71 2468.13,3338.70"/>
    </edge>
    <edge id=":belfast_2" function="internal">
        <lane id=":belfast_2_0" index="0" speed="10.00" length="36.66" shape="2488.38,3328.15 2493.15,3342.57 2495.91,3353.25 2496.65,3360.19 2495.36,3363.41"/>
    </edge>
    <edge id=":belfast_3" function="internal">
        <lane id=":belfast_3_0" index="0" speed="8.82" length="30.88" shape="2488.38,3328.15 2488.41,3335.94 2483.60,3340.84 2476.11,3342.03 2468.13,3338.70"/>
    </edge>
    <edge id=":belfast_4" function="internal">
        <lane id=":belfast_4_0" index="0" speed="10.00" length="40.12" shape="2477.21,3328.79 2486.03,3341.26 2492.64,3351.76 2496.07,3359.44 2495.36,3363.41"/>
    </edge>
    <edge id=":belfast_5" function="internal">
        <lane id=":belfast_5_0" index="0" speed="6.63" length="18.69" shape="2477.21,3328.79 2478.48,3333.53 2476.53,3337.73 2472.65,3339.94 2468.13,3338.70"/>
    </edge>
    <edge id=":belfast_6" function="internal">
        <lane id=":belfast_6_0" index="0" speed="10.00" length="39.48" shape="2474.57,3331.20 2484.38,3342.60 2491.87,3352.33 2495.90,3359.55 2495.36,3363.41"/>
    </edge>
    <edge id=":belfast_7" function="internal">
        <lane id=":belfast_7_0" index="0" speed="5.82" length="14.44" shape="2474.57,3331.20 2475.77,3335.49 2475.10,3338.17 2472.55,3339.24 2468.13,3338.70"/>
    </edge>
    <edge id=":belfast_8" function="internal">
        <lane id=":belfast_8_0" index="0" speed="7.07" length="21.63" shape="2473.08,3347.91 2478.25,3349.61 2479.15,3348.64 2475.78,3345.01 2468.13,3338.70"/>
    </edge>
    <edge id=":belfast_9" function="internal">
        <lane id=":belfast_9_0" index="0" speed="9.32" length="29.29" shape="2473.08,3347.91 2483.17,3352.34 2491.39,3356.69 2496.02,3360.51 2495.36,3363.41"/>
    </edge>
    <edge id=":bray_0" function="internal">
        <lane id=":bray_0_0" index="0" speed="8.28" length="32.76" shape="2435.56,1655.16 2424.11,1650.80 2420.15,1649.70 2423.66,1651.88 2434.65,1657.32"/>
    </edge>
    <edge id=":bray_1" function="internal">
        <lane id=":bray_1_0" index="0" speed="10.00" length="23.49" shape="2435.56,1655.16 2440.79,1658.13 2444.36,1662.25 2446.25,1667.52 2446.47,1673.95"/>
    </edge>
    <edge id=":bray_2" function="internal">
        <lane id=":bray_2_0" index="0" speed="9.58" length="21.81" shape="2435.56,1655.16 2440.71,1658.13 2443.54,1662.05 2444.05,1666.94 2442.24,1672.78"/>
    </edge>
    <edge id=":bray_3" function="internal">
        <lane id=":bray_3_0" index="0" speed="9.20" length="20.30" shape="2435.56,1655.16 2439.40,1658.08 2442.00,1662.68 2443.00,1667.91 2442.04,1672.68"/>
    </edge>
    <edge id=":bray_4" function="internal">
        <lane id=":bray_4_0" index="0" speed="7.08" length="20.23" shape="2435.56,1655.16 2442.10,1658.27 2444.19,1660.68 2441.83,1662.40 2435.03,1663.42"/>
    </edge>
    <edge id=":bray_5" function="internal">
        <lane id=":bray_5_0" index="0" speed="7.10" length="20.61" shape="2435.56,1655.16 2442.30,1658.33 2444.46,1660.70 2442.02,1662.27 2435.00,1663.05"/>
    </edge>
    <edge id=":bray_6" function="internal">
        <lane id=":bray_6_0" index="0" speed="4.17" length="5.65" shape="2434.76,1659.85 2436.54,1659.62 2437.11,1659.12 2436.48,1658.36 2434.65,1657.32"/>
    </edge>
    <edge id=":bray_7" function="internal">
        <lane id=":bray_7_0" index="0" speed="9.32" length="21.53" shape="2434.76,1659.85 2440.37,1660.54 2444.19,1663.11 2446.22,1667.58 2446.47,1673.95"/>
    </edge>
    <edge id=":bray_8" function="internal">
        <lane id=":bray_8_0" index="0" speed="7.47" length="16.72" shape="2434.76,1659.85 2438.33,1661.16 2441.16,1664.55 2442.66,1668.83 2442.24,1672.78"/>
    </edge>
    <edge id=":bray_9" function="internal">
        <lane id=":bray_9_0" index="0" speed="7.40" length="16.54" shape="2434.76,1659.85 2438.28,1661.15 2441.06,1664.54 2442.51,1668.79 2442.04,1672.68"/>
    </edge>
    <edge id=":bray_10" function="internal">
        <lane id=":bray_10_0" index="0" speed="3.36" length="3.58" shape="2434.76,1659.85 2435.03,1663.42"/>
    </edge>
    <edge id=":bray_11" function="internal">
        <lane id=":bray_11_0" index="0" speed="3.65" length="4.68" shape="2434.76,1659.85 2436.02,1660.56 2436.48,1661.33 2436.14,1662.16 2435.00,1663.05"/>
    </edge>
    <edge id=":bray_12" function="internal">
        <lane id=":bray_12_0" index="0" speed="5.88" length="10.95" shape="2437.38,1670.42 2439.24,1667.14 2439.47,1664.89 2438.07,1663.65 2435.03,1663.42"/>
    </edge>
    <edge id=":bray_13" function="internal">
        <lane id=":bray_13_0" index="0" speed="5.99" length="11.25" shape="2437.38,1670.42 2439.27,1667.07 2439.50,1664.73 2438.08,1663.39 2435.00,1663.05"/>
    </edge>
    <edge id=":bray_14" function="internal">
        <lane id=":bray_14_0" index="0" speed="7.98" length="15.91" shape="2437.38,1670.42 2439.54,1666.30 2439.81,1662.75 2438.18,1659.75 2434.65,1657.32"/>
    </edge>
    <edge id=":bray_15" function="internal">
        <lane id=":bray_15_0" index="0" speed="7.32" length="21.02" shape="2437.38,1670.42 2441.97,1664.95 2445.02,1663.71 2446.52,1666.71 2446.47,1673.95"/>
    </edge>
    <edge id=":bray_16" function="internal">
        <lane id=":bray_16_0" index="0" speed="4.17" length="6.37" shape="2437.38,1670.42 2438.68,1669.94 2440.48,1670.44 2441.95,1671.52 2442.24,1672.78"/>
    </edge>
    <edge id=":bray_17" function="internal">
        <lane id=":bray_17_0" index="0" speed="4.44" length="7.57" shape="2437.38,1670.42 2439.39,1669.24 2440.84,1669.22 2441.72,1670.37 2442.04,1672.68"/>
    </edge>
    <edge id=":carlow_0" function="internal">
        <lane id=":carlow_0_0" index="0" speed="3.70" length="4.40" shape="1889.78,1161.36 1889.09,1159.92 1888.67,1159.49 1888.54,1160.07 1888.67,1161.66"/>
    </edge>
    <edge id=":carlow_1" function="internal">
        <lane id=":carlow_1_0" index="0" speed="6.43" length="15.73" shape="1889.78,1161.36 1887.90,1158.30 1886.24,1158.48 1884.80,1161.89 1883.58,1168.55"/>
    </edge>
    <edge id=":carlow_2" function="internal">
        <lane id=":carlow_2_0" index="0" speed="6.98" length="16.03" shape="1889.78,1161.36 1887.87,1158.79 1885.48,1158.89 1882.60,1161.68 1879.24,1167.16"/>
    </edge>
    <edge id=":carlow_3" function="internal">
        <lane id=":carlow_3_0" index="0" speed="7.45" length="17.31" shape="1880.89,1147.30 1883.13,1147.86 1885.51,1151.64 1887.53,1156.84 1888.67,1161.66"/>
    </edge>
    <edge id=":carlow_4" function="internal">
        <lane id=":carlow_4_0" index="0" speed="7.88" length="22.35" shape="1880.89,1147.30 1882.76,1148.55 1883.76,1154.31 1884.00,1161.88 1883.58,1168.55"/>
    </edge>
    <edge id=":carlow_5" function="internal">
        <lane id=":carlow_5_0" index="0" speed="7.66" length="24.49" shape="1880.89,1147.30 1884.13,1146.20 1883.38,1150.63 1880.26,1157.99 1876.41,1165.66"/>
    </edge>
    <edge id=":carlow_6" function="internal">
        <lane id=":carlow_6_0" index="0" speed="7.77" length="18.99" shape="1880.89,1147.30 1883.37,1146.56 1885.50,1148.71 1887.26,1153.74 1888.67,1161.66"/>
    </edge>
    <edge id=":carlow_7" function="internal">
        <lane id=":carlow_7_0" index="0" speed="7.88" length="22.35" shape="1880.89,1147.30 1882.76,1148.55 1883.76,1154.31 1884.00,1161.88 1883.58,1168.55"/>
    </edge>
    <edge id=":carlow_8" function="internal">
        <lane id=":carlow_8_0" index="0" speed="7.09" length="20.70" shape="1880.89,1147.30 1882.56,1147.79 1881.49,1152.97 1879.00,1159.91 1876.41,1165.66"/>
    </edge>
    <edge id=":carrick_0" function="internal">
        <lane id=":carrick_0_0" index="0" speed="10.00" length="15.69" shape="1130.26,2590.91 1127.56,2587.14 1124.67,2584.30 1121.61,2582.38 1118.38,2581.38"/>
    </edge>
    <edge id=":carrick_1" function="internal">
        <lane id=":carrick_1_0" index="0" speed="10.00" length="43.80" shape="1130.26,2590.91 1127.22,2583.29 1123.02,2570.30 1119.10,2557.19 1116.90,2549.23"/>
    </edge>
    <edge id=":carrick_2" function="internal">
        <lane id=":carrick_2_0" index="0" speed="10.00" length="43.48" shape="1130.26,2590.91 1127.71,2583.20 1124.61,2570.02 1121.89,2556.70 1120.48,2548.59"/>
    </edge>
    <edge id=":carrick_3" function="internal">
        <lane id=":carrick_3_0" index="0" speed="10.00" length="31.33" shape="1130.26,2590.91 1128.78,2584.94 1128.16,2575.60 1128.23,2566.13 1128.81,2559.81"/>
    </edge>
    <edge id=":carrick_4" function="internal">
        <lane id=":carrick_4_0" index="0" speed="10.00" length="30.80" shape="1130.26,2590.91 1128.25,2585.38 1128.32,2578.68 1130.48,2570.78 1134.73,2561.70"/>
    </edge>
    <edge id=":carrick_5" function="internal">
        <lane id=":carrick_5_0" index="0" speed="10.00" length="17.10" shape="1134.27,2587.51 1130.64,2585.63 1126.54,2583.82 1122.33,2582.33 1118.38,2581.38"/>
    </edge>
    <edge id=":carrick_6" function="internal">
        <lane id=":carrick_6_0" index="0" speed="10.00" length="42.79" shape="1134.27,2587.51 1129.56,2583.07 1125.09,2575.21 1120.88,2563.93 1116.90,2549.23"/>
    </edge>
    <edge id=":carrick_7" function="internal">
        <lane id=":carrick_7_0" index="0" speed="10.00" length="42.25" shape="1134.27,2587.51 1129.75,2583.01 1125.94,2575.02 1122.85,2563.55 1120.48,2548.59"/>
    </edge>
    <edge id=":carrick_8" function="internal">
        <lane id=":carrick_8_0" index="0" speed="10.00" length="30.02" shape="1134.27,2587.51 1130.15,2583.65 1127.87,2577.74 1127.42,2569.79 1128.81,2559.81"/>
    </edge>
    <edge id=":carrick_9" function="internal">
        <lane id=":carrick_9_0" index="0" speed="10.00" length="27.18" shape="1134.27,2587.51 1131.56,2583.30 1130.99,2576.33 1132.18,2568.50 1134.73,2561.70"/>
    </edge>
    <edge id=":carrick_10" function="internal">
        <lane id=":carrick_10_0" index="0" speed="10.00" length="29.20" shape="1140.09,2564.63 1135.03,2572.68 1129.72,2578.16 1124.17,2581.05 1118.38,2581.38"/>
    </edge>
    <edge id=":carrick_11" function="internal">
        <lane id=":carrick_11_0" index="0" speed="9.34" length="32.59" shape="1137.28,2563.09 1131.84,2567.91 1125.86,2565.70 1120.51,2558.72 1116.90,2549.23"/>
    </edge>
    <edge id=":carrick_12" function="internal">
        <lane id=":carrick_12_0" index="0" speed="8.72" length="29.61" shape="1137.28,2563.09 1132.43,2567.15 1127.27,2564.52 1122.92,2557.55 1120.48,2548.59"/>
    </edge>
    <edge id=":carrick_13" function="internal">
        <lane id=":carrick_13_0" index="0" speed="5.58" length="12.63" shape="1137.28,2563.09 1134.82,2565.16 1131.77,2564.98 1129.36,2563.03 1128.81,2559.81"/>
    </edge>
    <edge id=":carrick_14" function="internal">
        <lane id=":carrick_14_0" index="0" speed="3.54" length="4.25" shape="1137.28,2563.09 1136.12,2563.70 1135.30,2563.67 1134.84,2563.01 1134.73,2561.70"/>
    </edge>
    <edge id=":carrick_15" function="internal">
        <lane id=":carrick_15_0" index="0" speed="5.82" length="13.47" shape="1130.35,2560.14 1130.01,2564.95 1130.62,2566.82 1132.19,2565.73 1134.73,2561.70"/>
    </edge>
    <edge id=":carrick_16" function="internal">
        <lane id=":carrick_16_0" index="0" speed="10.00" length="26.60" shape="1130.35,2560.14 1128.49,2569.98 1125.87,2576.80 1122.50,2580.60 1118.38,2581.38"/>
    </edge>
    <edge id=":carrick_17" function="internal">
        <lane id=":carrick_17_0" index="0" speed="7.45" length="23.37" shape="1130.35,2560.14 1128.03,2563.78 1123.98,2561.77 1119.76,2556.23 1116.90,2549.23"/>
    </edge>
    <edge id=":carrick_18" function="internal">
        <lane id=":carrick_18_0" index="0" speed="6.73" length="20.85" shape="1130.35,2560.14 1131.28,2552.38 1131.32,2549.74 1130.50,2552.21 1128.81,2559.81"/>
    </edge>
    <edge id=":carrick_19" function="internal">
        <lane id=":carrick_19_0" index="0" speed="7.13" length="22.19" shape="1130.35,2560.14 1123.56,2560.95 1119.65,2559.30 1118.62,2555.18 1120.48,2548.59"/>
    </edge>
    <edge id=":castlebar_0" function="internal">
        <lane id=":castlebar_0_0" index="0" speed="10.00" length="23.70" shape="310.56,2451.22 305.18,2448.62 301.05,2444.84 298.15,2439.87 296.50,2433.71"/>
    </edge>
    <edge id=":castlebar_1" function="internal">
        <lane id=":castlebar_1_0" index="0" speed="9.93" length="29.76" shape="310.56,2451.22 308.12,2447.05 309.51,2439.48 313.24,2431.10 317.84,2424.49"/>
    </edge>
    <edge id=":castlebar_2" function="internal">
        <lane id=":castlebar_2_0" index="0" speed="9.92" length="31.96" shape="310.56,2451.22 309.13,2446.93 312.43,2439.07 318.17,2430.53 324.04,2424.22"/>
    </edge>
    <edge id=":castlebar_3" function="internal">
        <lane id=":castlebar_3_0" index="0" speed="9.92" length="31.96" shape="310.56,2451.22 309.13,2446.93 312.43,2439.07 318.17,2430.53 324.04,2424.22"/>
    </edge>
    <edge id=":castlebar_4" function="internal">
        <lane id=":castlebar_4_0" index="0" speed="9.55" length="33.53" shape="310.56,2451.22 306.18,2447.22 309.63,2442.01 317.91,2436.42 328.02,2431.28"/>
    </edge>
    <edge id=":castlebar_5" function="internal">
        <lane id=":castlebar_5_0" index="0" speed="8.38" length="33.65" shape="310.56,2451.22 322.42,2455.03 326.42,2455.89 322.58,2453.81 310.88,2448.79"/>
    </edge>
    <edge id=":castlebar_6" function="internal">
        <lane id=":castlebar_6_0" index="0" speed="3.14" length="2.64" shape="310.80,2449.39 311.74,2449.50 312.07,2449.44 311.78,2449.20 310.88,2448.79"/>
    </edge>
    <edge id=":castlebar_7" function="internal">
        <lane id=":castlebar_7_0" index="0" speed="10.00" length="22.85" shape="310.80,2449.39 305.33,2447.66 301.12,2444.47 298.18,2439.82 296.50,2433.71"/>
    </edge>
    <edge id=":castlebar_8" function="internal">
        <lane id=":castlebar_8_0" index="0" speed="9.82" length="31.70" shape="310.80,2449.39 305.60,2446.17 306.27,2440.17 310.97,2432.55 317.84,2424.49"/>
    </edge>
    <edge id=":castlebar_9" function="internal">
        <lane id=":castlebar_9_0" index="0" speed="9.33" length="30.54" shape="310.80,2449.39 309.02,2445.78 312.28,2438.50 318.11,2430.37 324.04,2424.22"/>
    </edge>
    <edge id=":castlebar_10" function="internal">
        <lane id=":castlebar_10_0" index="0" speed="9.33" length="30.54" shape="310.80,2449.39 309.02,2445.78 312.28,2438.50 318.11,2430.37 324.04,2424.22"/>
    </edge>
    <edge id=":castlebar_11" function="internal">
        <lane id=":castlebar_11_0" index="0" speed="8.47" length="27.97" shape="310.80,2449.39 309.01,2446.49 313.54,2441.15 321.00,2435.39 328.02,2431.28"/>
    </edge>
    <edge id=":castlebar_12" function="internal">
        <lane id=":castlebar_12_0" index="0" speed="6.34" length="14.22" shape="319.09,2441.74 313.17,2443.86 309.84,2445.74 309.07,2447.39 310.88,2448.79"/>
    </edge>
    <edge id=":castlebar_13" function="internal">
        <lane id=":castlebar_13_0" index="0" speed="10.00" length="28.57" shape="319.09,2441.74 310.45,2443.84 303.71,2443.70 299.01,2440.57 296.50,2433.71"/>
    </edge>
    <edge id=":castlebar_14" function="internal">
        <lane id=":castlebar_14_0" index="0" speed="7.66" length="23.30" shape="319.09,2441.74 314.10,2441.24 312.57,2436.82 313.98,2430.55 317.84,2424.49"/>
    </edge>
    <edge id=":castlebar_15" function="internal">
        <lane id=":castlebar_15_0" index="0" speed="7.64" length="24.47" shape="319.09,2441.74 314.69,2441.17 315.01,2436.51 318.60,2430.08 324.04,2424.22"/>
    </edge>
    <edge id=":castlebar_16" function="internal">
        <lane id=":castlebar_16_0" index="0" speed="7.08" length="20.73" shape="319.09,2441.74 316.75,2440.30 317.63,2435.10 320.47,2428.83 324.04,2424.22"/>
    </edge>
    <edge id=":castlebar_17" function="internal">
        <lane id=":castlebar_17_0" index="0" speed="6.68" length="20.10" shape="319.09,2441.74 317.40,2435.77 318.32,2432.04 321.87,2430.54 328.02,2431.28"/>
    </edge>
    <edge id=":castlebar_18" function="internal">
        <lane id=":castlebar_18_0" index="0" speed="8.93" length="27.05" shape="328.35,2431.99 318.00,2438.21 311.64,2443.09 309.26,2446.62 310.88,2448.79"/>
    </edge>
    <edge id=":castlebar_19" function="internal">
        <lane id=":castlebar_19_0" index="0" speed="10.00" length="37.24" shape="328.35,2431.99 317.11,2437.64 307.33,2440.72 300.10,2439.87 296.50,2433.71"/>
    </edge>
    <edge id=":castlebar_20" function="internal">
        <lane id=":castlebar_20_0" index="0" speed="6.53" length="17.83" shape="328.35,2431.99 323.38,2433.03 318.91,2431.52 316.54,2428.37 317.84,2424.49"/>
    </edge>
    <edge id=":castlebar_21" function="internal">
        <lane id=":castlebar_21_0" index="0" speed="5.45" length="12.45" shape="328.35,2431.99 325.32,2432.23 323.14,2430.18 322.49,2427.09 324.04,2424.22"/>
    </edge>
    <edge id=":castlebar_22" function="internal">
        <lane id=":castlebar_22_0" index="0" speed="4.95" length="10.26" shape="328.35,2431.99 331.68,2430.07 332.74,2429.31 331.52,2429.71 328.02,2431.28"/>
    </edge>
    <edge id=":castlebar_23" function="internal">
        <lane id=":castlebar_23_0" index="0" speed="5.55" length="12.98" shape="328.35,2431.99 324.36,2431.66 322.31,2430.26 322.20,2427.78 324.04,2424.22"/>
    </edge>
    <edge id=":castlebar_24" function="internal">
        <lane id=":castlebar_24_0" index="0" speed="3.65" length="4.53" shape="324.28,2424.52 325.48,2423.32 325.84,2422.87 325.36,2423.17 324.04,2424.22"/>
    </edge>
    <edge id=":castlebar_25" function="internal">
        <lane id=":castlebar_25_0" index="0" speed="3.65" length="4.53" shape="324.28,2424.52 325.48,2423.32 325.84,2422.87 325.36,2423.17 324.04,2424.22"/>
    </edge>
    <edge id=":castlebar_26" function="internal">
        <lane id=":castlebar_26_0" index="0" speed="5.92" length="14.16" shape="324.28,2424.52 320.81,2428.30 320.06,2430.19 322.03,2430.21 326.70,2428.36"/>
    </edge>
    <edge id=":castlebar_27" function="internal">
        <lane id=":castlebar_27_0" index="0" speed="10.00" length="30.46" shape="324.28,2424.52 315.41,2433.89 310.21,2441.06 308.71,2446.02 310.88,2448.79"/>
    </edge>
    <edge id=":castlebar_28" function="internal">
        <lane id=":castlebar_28_0" index="0" speed="10.00" length="35.79" shape="324.28,2424.52 315.31,2432.58 306.78,2438.26 300.05,2439.36 296.50,2433.71"/>
    </edge>
    <edge id=":castlebar_29" function="internal">
        <lane id=":castlebar_29_0" index="0" speed="4.76" length="9.40" shape="324.28,2424.52 322.65,2426.93 321.04,2427.72 319.44,2426.91 317.84,2424.49"/>
    </edge>
    <edge id=":castlebar_30" function="internal">
        <lane id=":castlebar_30_0" index="0" speed="7.38" length="20.68" shape="303.56,2432.62 303.99,2435.31 306.51,2434.86 311.13,2431.25 317.84,2424.49"/>
    </edge>
    <edge id=":castlebar_31" function="internal">
        <lane id=":castlebar_31_0" index="0" speed="8.49" length="26.36" shape="303.56,2432.62 304.32,2435.67 307.99,2435.28 314.56,2431.47 324.04,2424.22"/>
    </edge>
    <edge id=":castlebar_32" function="internal">
        <lane id=":castlebar_32_0" index="0" speed="8.49" length="26.36" shape="303.56,2432.62 304.32,2435.67 307.99,2435.28 314.56,2431.47 324.04,2424.22"/>
    </edge>
    <edge id=":castlebar_33" function="internal">
        <lane id=":castlebar_33_0" index="0" speed="8.93" length="25.86" shape="303.56,2432.62 304.63,2434.94 308.84,2435.01 316.20,2432.82 326.70,2428.36"/>
    </edge>
    <edge id=":castlebar_34" function="internal">
        <lane id=":castlebar_34_0" index="0" speed="10.00" length="19.27" shape="303.56,2432.62 303.34,2438.27 304.49,2442.85 307.00,2446.36 310.88,2448.79"/>
    </edge>
    <edge id=":castlebar_35" function="internal">
        <lane id=":castlebar_35_0" index="0" speed="5.16" length="10.43" shape="303.56,2432.62 302.21,2435.54 300.58,2436.70 298.68,2436.09 296.50,2433.71"/>
    </edge>
    <edge id=":cavan_0" function="internal">
        <lane id=":cavan_0_0" index="0" speed="5.47" length="10.48" shape="1688.46,2616.31 1688.32,2619.81 1689.10,2621.36 1690.79,2620.98 1693.41,2618.66"/>
    </edge>
    <edge id=":cavan_1" function="internal">
        <lane id=":cavan_1_0" index="0" speed="10.00" length="18.55" shape="1682.35,2633.40 1684.19,2629.58 1687.12,2625.60 1690.44,2621.83 1693.41,2618.66"/>
    </edge>
    <edge id=":clonmel_0" function="internal">
        <lane id=":clonmel_0_0" index="0" speed="10.00" length="52.11" shape="1381.14,582.40 1382.59,601.66 1383.45,616.75 1383.72,627.67 1383.41,634.42"/>
    </edge>
    <edge id=":clonmel_1" function="internal">
        <lane id=":clonmel_1_0" index="0" speed="3.48" length="3.88" shape="1382.97,634.39 1382.97,635.83 1383.05,636.32 1383.19,635.85 1383.41,634.42"/>
    </edge>
    <edge id=":clonmel_2" function="internal">
        <lane id=":clonmel_2_0" index="0" speed="6.03" length="14.90" shape="1387.82,634.20 1386.59,628.99 1385.44,627.29 1384.38,629.10 1383.41,634.42"/>
    </edge>
    <edge id=":cork_0" function="internal">
        <lane id=":cork_0_0" index="0" speed="6.56" length="16.11" shape="814.37,9.46 814.25,3.74 815.37,1.13 817.76,1.61 821.40,5.21"/>
    </edge>
    <edge id=":cork_1" function="internal">
        <lane id=":cork_1_0" index="0" speed="4.24" length="6.70" shape="817.82,8.08 817.64,6.02 818.17,4.86 819.42,4.59 821.40,5.21"/>
    </edge>
    <edge id=":cork_2" function="internal">
        <lane id=":cork_2_0" index="0" speed="6.56" length="16.18" shape="814.53,9.44 814.29,3.68 815.36,1.06 817.73,1.57 821.40,5.21"/>
    </edge>
    <edge id=":craigavon_0" function="internal">
        <lane id=":craigavon_0_0" index="0" speed="10.00" length="49.83" shape="2149.71,3131.62 2147.05,3143.54 2138.38,3148.00 2125.92,3146.44 2111.90,3140.29"/>
    </edge>
    <edge id=":craigavon_1" function="internal">
        <lane id=":craigavon_1_0" index="0" speed="10.00" length="39.19" shape="2149.71,3131.62 2147.10,3139.68 2139.50,3140.57 2129.70,3136.06 2120.49,3127.94"/>
    </edge>
    <edge id=":craigavon_2" function="internal">
        <lane id=":craigavon_2_0" index="0" speed="6.25" length="16.21" shape="2149.71,3131.62 2148.47,3135.72 2145.15,3137.97 2141.31,3137.87 2138.50,3134.92"/>
    </edge>
    <edge id=":craigavon_3" function="internal">
        <lane id=":craigavon_3_0" index="0" speed="10.00" length="47.83" shape="2147.95,3132.14 2145.96,3143.43 2137.63,3147.64 2125.45,3146.15 2111.90,3140.29"/>
    </edge>
    <edge id=":craigavon_4" function="internal">
        <lane id=":craigavon_4_0" index="0" speed="9.64" length="37.11" shape="2147.95,3132.14 2145.92,3139.59 2138.74,3140.18 2129.30,3135.69 2120.49,3127.94"/>
    </edge>
    <edge id=":craigavon_5" function="internal">
        <lane id=":craigavon_5_0" index="0" speed="5.86" length="14.39" shape="2147.95,3132.14 2146.63,3136.38 2144.61,3138.26 2141.90,3137.77 2138.50,3134.92"/>
    </edge>
    <edge id=":craigavon_6" function="internal">
        <lane id=":craigavon_6_0" index="0" speed="7.82" length="26.92" shape="2125.17,3124.02 2133.14,3134.28 2138.02,3139.51 2139.80,3139.73 2138.50,3134.92"/>
    </edge>
    <edge id=":craigavon_7" function="internal">
        <lane id=":craigavon_7_0" index="0" speed="8.29" length="28.85" shape="2125.17,3124.02 2127.47,3131.32 2124.96,3137.82 2119.23,3141.49 2111.90,3140.29"/>
    </edge>
    <edge id=":craigavon_8" function="internal">
        <lane id=":craigavon_8_0" index="0" speed="4.67" length="8.91" shape="2125.17,3124.02 2125.47,3126.76 2124.79,3128.32 2123.13,3128.71 2120.49,3127.94"/>
    </edge>
    <edge id=":craigavon_9" function="internal">
        <lane id=":craigavon_9_0" index="0" speed="7.28" length="23.99" shape="2117.94,3130.79 2124.85,3136.31 2127.58,3137.68 2126.12,3134.89 2120.49,3127.94"/>
    </edge>
    <edge id=":craigavon_10" function="internal">
        <lane id=":craigavon_10_0" index="0" speed="9.11" length="34.03" shape="2117.94,3130.79 2129.83,3140.01 2137.22,3143.78 2140.11,3142.08 2138.50,3134.92"/>
    </edge>
    <edge id=":craigavon_11" function="internal">
        <lane id=":craigavon_11_0" index="0" speed="6.17" length="16.46" shape="2117.94,3130.79 2120.00,3135.43 2119.67,3138.56 2116.97,3140.18 2111.90,3140.29"/>
    </edge>
    <edge id=":derry_0" function="internal">
        <lane id=":derry_0_0" index="0" speed="10.00" length="36.63" shape="1618.51,3878.44 1613.57,3878.13 1609.50,3871.94 1606.14,3861.51 1603.36,3848.49"/>
    </edge>
    <edge id=":derry_1" function="internal">
        <lane id=":derry_1_0" index="0" speed="7.02" length="21.82" shape="1613.10,3861.59 1611.71,3864.62 1608.76,3861.78 1605.55,3855.57 1603.36,3848.49"/>
    </edge>
    <edge id=":derry_2" function="internal">
        <lane id=":derry_2_0" index="0" speed="3.65" length="4.67" shape="1606.51,3847.91 1605.94,3849.24 1605.23,3849.78 1604.37,3849.53 1603.36,3848.49"/>
    </edge>
    <edge id=":derry_3" function="internal">
        <lane id=":derry_3_0" index="0" speed="6.63" length="19.13" shape="1599.49,3849.66 1602.45,3856.03 1604.09,3857.97 1604.39,3855.45 1603.36,3848.49"/>
    </edge>
    <edge id=":dublin_0" function="internal">